<?xml version="1.0" encoding="UTF-8"?>

<!-- generated on 2026-03-29 18:52:22.396358 by Eclipse SUMO randomTrips.py v1_26_0+0000-fa7df22d7f1
<configuration>
    <net-file value="osm.net.xml.gz"/>
    <output-trip-file value="osm.bus.trips.xml"/>
    <route-file value="osm.bus.rou.xml"/>
    <prefix value="bus"/>
    <vehicle-class value="bus"/>
    <fringe-factor value="20"/>
    <end value="10800.0"/>
    <period value="10.0"/>
</configuration>
-->

<routes xmlns:xsi="http://www.w3.org/2001/XMLSchema-instance" xsi:noNamespaceSchemaLocation="http://sumo.dlr.de/xsd/routes_file.xsd">
    <vType id="bus_bus" vClass="bus"/>
    <trip id="bus0" depart="0.00" from="456678637#0" to="-129915065" type="bus_bus"/>
    <trip id="bus1" depart="10.00" from="1432084980#0" to="-759336243#0" type="bus_bus"/>
    <trip id="bus2" depart="20.00" from="51850996" to="457333537#0" type="bus_bus"/>
    <trip id="bus3" depart="30.00" from="660881710#0" to="-292058179#1" type="bus_bus"/>
    <trip id="bus4" depart="40.00" from="24301663" to="-129915065" type="bus_bus"/>
    <trip id="bus5" depart="50.00" from="126612905" to="286707429#2" type="bus_bus"/>
    <trip id="bus6" depart="60.00" from="-170019196" to="-660881710#1" type="bus_bus"/>
    <trip id="bus7" depart="70.00" from="460847239#0" to="299376586#0" type="bus_bus"/>
    <trip id="bus8" depart="80.00" from="126612909" to="324061358" type="bus_bus"/>
    <trip id="bus9" depart="90.00" from="59556908#0" to="-1133257413" type="bus_bus"/>
    <trip id="bus10" depart="100.00" from="170104260" to="-481398535" type="bus_bus"/>
    <trip id="bus11" depart="110.00" from="7988529" to="15391661#0" type="bus_bus"/>
    <trip id="bus12" depart="120.00" from="-315630017#1" to="-296659365" type="bus_bus"/>
    <trip id="bus13" depart="130.00" from="60616212#0" to="33183112#0" type="bus_bus"/>
    <trip id="bus14" depart="140.00" from="59556907#0" to="481398535" type="bus_bus"/>
    <trip id="bus15" depart="150.00" from="32266091" to="7988469" type="bus_bus"/>
    <trip id="bus16" depart="160.00" from="183184922" to="299376586#0" type="bus_bus"/>
    <trip id="bus17" depart="170.00" from="598944884#0" to="34942578" type="bus_bus"/>
    <trip id="bus18" depart="180.00" from="625060015" to="319285808#3" type="bus_bus"/>
    <trip id="bus19" depart="190.00" from="49681045" to="-170043629" type="bus_bus"/>
    <trip id="bus20" depart="200.00" from="126765650" to="1211205542" type="bus_bus"/>
    <trip id="bus21" depart="210.00" from="-35967841" to="115891666#2" type="bus_bus"/>
    <trip id="bus22" depart="220.00" from="455480606" to="170019204" type="bus_bus"/>
    <trip id="bus23" depart="230.00" from="183184922" to="-759168043" type="bus_bus"/>
    <trip id="bus24" depart="240.00" from="133325790#0" to="689753983" type="bus_bus"/>
    <trip id="bus25" depart="250.00" from="459668281#0" to="34572672" type="bus_bus"/>
    <trip id="bus26" depart="260.00" from="1133268690#0" to="481398535" type="bus_bus"/>
    <trip id="bus27" depart="270.00" from="1085736098#0" to="170043629" type="bus_bus"/>
    <trip id="bus28" depart="280.00" from="915062445" to="384916872#0" type="bus_bus"/>
    <trip id="bus29" depart="290.00" from="324061373" to="462184879" type="bus_bus"/>
    <trip id="bus30" depart="300.00" from="600711846" to="503811360" type="bus_bus"/>
    <trip id="bus31" depart="310.00" from="126765650" to="-15883748" type="bus_bus"/>
    <trip id="bus32" depart="320.00" from="170000686#0" to="1133257418" type="bus_bus"/>
    <trip id="bus33" depart="330.00" from="1219592420" to="689753983" type="bus_bus"/>
    <trip id="bus34" depart="340.00" from="625093160#0" to="1327330689" type="bus_bus"/>
    <trip id="bus35" depart="350.00" from="463177310#0" to="171722297" type="bus_bus"/>
    <trip id="bus36" depart="360.00" from="759168046" to="263228458#0" type="bus_bus"/>
    <trip id="bus37" depart="370.00" from="1322111544" to="1085736096" type="bus_bus"/>
    <trip id="bus38" depart="380.00" from="324227718" to="1088265904" type="bus_bus"/>
    <trip id="bus39" depart="390.00" from="34942578" to="623631177" type="bus_bus"/>
    <trip id="bus40" depart="400.00" from="20306526" to="-759336243#0" type="bus_bus"/>
    <trip id="bus41" depart="410.00" from="952945082#0" to="288069930" type="bus_bus"/>
    <trip id="bus42" depart="420.00" from="-296896088#1" to="-170104259" type="bus_bus"/>
    <trip id="bus43" depart="430.00" from="-464551516" to="35967847" type="bus_bus"/>
    <trip id="bus44" depart="440.00" from="59552742" to="235997637" type="bus_bus"/>
    <trip id="bus45" depart="450.00" from="-27533472" to="170043645" type="bus_bus"/>
    <trip id="bus46" depart="460.00" from="952945080#1" to="296659363#0" type="bus_bus"/>
    <trip id="bus47" depart="470.00" from="894039050" to="59556906#2" type="bus_bus"/>
    <trip id="bus48" depart="480.00" from="-1257170577#1" to="481398535" type="bus_bus"/>
    <trip id="bus49" depart="490.00" from="485955798" to="296896087#0" type="bus_bus"/>
    <trip id="bus50" depart="500.00" from="1327330690" to="384916877" type="bus_bus"/>
    <trip id="bus51" depart="510.00" from="-481230968#1" to="235997648#0" type="bus_bus"/>
    <trip id="bus52" depart="520.00" from="625093160#0" to="1091525590" type="bus_bus"/>
    <trip id="bus53" depart="530.00" from="296896088#1" to="-548883610" type="bus_bus"/>
    <trip id="bus54" depart="540.00" from="725380349#0" to="598944885#3" type="bus_bus"/>
    <trip id="bus55" depart="550.00" from="1492230041" to="375667879" type="bus_bus"/>
    <trip id="bus56" depart="560.00" from="385208720" to="-481230968#1" type="bus_bus"/>
    <trip id="bus57" depart="570.00" from="552840035" to="296896088#2" type="bus_bus"/>
    <trip id="bus58" depart="580.00" from="587486413" to="296659364" type="bus_bus"/>
    <trip id="bus59" depart="590.00" from="-1011477960" to="1432084980#0" type="bus_bus"/>
    <trip id="bus60" depart="600.00" from="-16610261" to="689753983" type="bus_bus"/>
    <trip id="bus61" depart="610.00" from="625093160#0" to="552840022#0" type="bus_bus"/>
    <trip id="bus62" depart="620.00" from="16064694#1" to="-24301478" type="bus_bus"/>
    <trip id="bus63" depart="630.00" from="625093160#0" to="725380349#0" type="bus_bus"/>
    <trip id="bus64" depart="640.00" from="-296659365" to="277760674" type="bus_bus"/>
    <trip id="bus65" depart="650.00" from="573201244" to="-35967842" type="bus_bus"/>
    <trip id="bus66" depart="660.00" from="289800579" to="299376586#0" type="bus_bus"/>
    <trip id="bus67" depart="670.00" from="1322111544" to="599334734" type="bus_bus"/>
    <trip id="bus68" depart="680.00" from="24305505" to="-759336243#0" type="bus_bus"/>
    <trip id="bus69" depart="690.00" from="32266091" to="481398535" type="bus_bus"/>
    <trip id="bus70" depart="700.00" from="1181724795" to="1306184529" type="bus_bus"/>
    <trip id="bus71" depart="710.00" from="943536785" to="410658513" type="bus_bus"/>
    <trip id="bus72" depart="720.00" from="264863287#1" to="292058174" type="bus_bus"/>
    <trip id="bus73" depart="730.00" from="-548875276#2" to="-759336243#0" type="bus_bus"/>
    <trip id="bus74" depart="740.00" from="170043664#0" to="324061356#0" type="bus_bus"/>
    <trip id="bus75" depart="750.00" from="126765650" to="-759336243#0" type="bus_bus"/>
    <trip id="bus76" depart="760.00" from="-288179988#2" to="360177728" type="bus_bus"/>
    <trip id="bus77" depart="770.00" from="126765650" to="627027224" type="bus_bus"/>
    <trip id="bus78" depart="780.00" from="623631173" to="-24741755" type="bus_bus"/>
    <trip id="bus79" depart="790.00" from="126765650" to="455480607#5" type="bus_bus"/>
    <trip id="bus80" depart="800.00" from="1233530733" to="-37546390" type="bus_bus"/>
    <trip id="bus81" depart="810.00" from="772272442" to="31563956" type="bus_bus"/>
    <trip id="bus82" depart="820.00" from="288179987" to="503811360" type="bus_bus"/>
    <trip id="bus83" depart="830.00" from="59556907#0" to="-60616242" type="bus_bus"/>
    <trip id="bus84" depart="840.00" from="-330596253" to="235997648#0" type="bus_bus"/>
    <trip id="bus85" depart="850.00" from="24305505" to="27056407#0" type="bus_bus"/>
    <trip id="bus86" depart="860.00" from="50219639#0" to="456678644#1" type="bus_bus"/>
    <trip id="bus87" depart="870.00" from="894039050" to="-296659370" type="bus_bus"/>
    <trip id="bus88" depart="880.00" from="207233934#3" to="16064694#1" type="bus_bus"/>
    <trip id="bus89" depart="890.00" from="625060015" to="1088265904" type="bus_bus"/>
    <trip id="bus90" depart="900.00" from="1147450680" to="24301663" type="bus_bus"/>
    <trip id="bus91" depart="910.00" from="24301663" to="115891667#0" type="bus_bus"/>
    <trip id="bus92" depart="920.00" from="129915065" to="687050509" type="bus_bus"/>
    <trip id="bus93" depart="930.00" from="27056409" to="59556906#3" type="bus_bus"/>
    <trip id="bus94" depart="940.00" from="324061352" to="-187285144#1" type="bus_bus"/>
    <trip id="bus95" depart="950.00" from="95842194#1" to="552840037#0" type="bus_bus"/>
    <trip id="bus96" depart="960.00" from="84596611" to="687050509" type="bus_bus"/>
    <trip id="bus97" depart="970.00" from="60616212#2" to="-50219635" type="bus_bus"/>
    <trip id="bus98" depart="980.00" from="293201850" to="-759336243#0" type="bus_bus"/>
    <trip id="bus99" depart="990.00" from="20306606" to="-24741755" type="bus_bus"/>
    <trip id="bus100" depart="1000.00" from="183184922" to="835805765" type="bus_bus"/>
    <trip id="bus101" depart="1010.00" from="1322111544" to="503811360" type="bus_bus"/>
    <trip id="bus102" depart="1020.00" from="27056409" to="235997648#0" type="bus_bus"/>
    <trip id="bus103" depart="1030.00" from="7988529" to="951416009" type="bus_bus"/>
    <trip id="bus104" depart="1040.00" from="324061371#0" to="481398535" type="bus_bus"/>
    <trip id="bus105" depart="1050.00" from="1082922727" to="1245089840#0" type="bus_bus"/>
    <trip id="bus106" depart="1060.00" from="835805765" to="322572316#0" type="bus_bus"/>
    <trip id="bus107" depart="1070.00" from="32266091" to="49681044" type="bus_bus"/>
    <trip id="bus108" depart="1080.00" from="-24741556" to="324046001" type="bus_bus"/>
    <trip id="bus109" depart="1090.00" from="301044212" to="58722665" type="bus_bus"/>
    <trip id="bus110" depart="1100.00" from="1084897571#2" to="772272443" type="bus_bus"/>
    <trip id="bus111" depart="1110.00" from="-293201850" to="-600711856" type="bus_bus"/>
    <trip id="bus112" depart="1120.00" from="359888871" to="456678982#0" type="bus_bus"/>
    <trip id="bus113" depart="1130.00" from="126765650" to="-329388956" type="bus_bus"/>
    <trip id="bus114" depart="1140.00" from="660881710#0" to="1085736096" type="bus_bus"/>
    <trip id="bus115" depart="1150.00" from="35967848#0" to="34942579" type="bus_bus"/>
    <trip id="bus116" depart="1160.00" from="24301465#0" to="324045999#0" type="bus_bus"/>
    <trip id="bus117" depart="1170.00" from="319285808#0" to="689753983" type="bus_bus"/>
    <trip id="bus118" depart="1180.00" from="1206485915" to="481230982#0" type="bus_bus"/>
    <trip id="bus119" depart="1190.00" from="126765650" to="171722297" type="bus_bus"/>
    <trip id="bus120" depart="1200.00" from="481398528" to="126612905" type="bus_bus"/>
    <trip id="bus121" depart="1210.00" from="170000687" to="498595603" type="bus_bus"/>
    <trip id="bus122" depart="1220.00" from="-292058174" to="263228457#0" type="bus_bus"/>
    <trip id="bus123" depart="1230.00" from="95842194#0" to="951416009" type="bus_bus"/>
    <trip id="bus124" depart="1240.00" from="-292058175" to="-759336243#0" type="bus_bus"/>
    <trip id="bus125" depart="1250.00" from="1322111544" to="689753983" type="bus_bus"/>
    <trip id="bus126" depart="1260.00" from="625093160#3" to="600711841" type="bus_bus"/>
    <trip id="bus127" depart="1270.00" from="183184922" to="-49681113" type="bus_bus"/>
    <trip id="bus128" depart="1280.00" from="599334729" to="464551510#0" type="bus_bus"/>
    <trip id="bus129" depart="1290.00" from="410658492" to="915062437#0" type="bus_bus"/>
    <trip id="bus130" depart="1300.00" from="463177309" to="-1133370808" type="bus_bus"/>
    <trip id="bus131" depart="1310.00" from="59556908#0" to="1257170577#1" type="bus_bus"/>
    <trip id="bus132" depart="1320.00" from="464556600" to="689753983" type="bus_bus"/>
    <trip id="bus133" depart="1330.00" from="-60616212#3" to="-329388956" type="bus_bus"/>
    <trip id="bus134" depart="1340.00" from="-456678637#2" to="299376586#0" type="bus_bus"/>
    <trip id="bus135" depart="1350.00" from="1365930983" to="33290236" type="bus_bus"/>
    <trip id="bus136" depart="1360.00" from="50219635" to="-660881710#1" type="bus_bus"/>
    <trip id="bus137" depart="1370.00" from="447597734#0" to="1091525591" type="bus_bus"/>
    <trip id="bus138" depart="1380.00" from="296659356" to="627027224" type="bus_bus"/>
    <trip id="bus139" depart="1390.00" from="603634858" to="-294796354" type="bus_bus"/>
    <trip id="bus140" depart="1400.00" from="24305505" to="115868477" type="bus_bus"/>
    <trip id="bus141" depart="1410.00" from="455480607#5" to="1088265904" type="bus_bus"/>
    <trip id="bus142" depart="1420.00" from="54357166" to="299376586#0" type="bus_bus"/>
    <trip id="bus143" depart="1430.00" from="-292058179#1" to="603634858" type="bus_bus"/>
    <trip id="bus144" depart="1440.00" from="660881710#0" to="299376586#0" type="bus_bus"/>
    <trip id="bus145" depart="1450.00" from="599334734" to="324045992#0" type="bus_bus"/>
    <trip id="bus146" depart="1460.00" from="1001157893#1" to="-35967841" type="bus_bus"/>
    <trip id="bus147" depart="1470.00" from="161324505#0" to="625060015" type="bus_bus"/>
    <trip id="bus148" depart="1480.00" from="59552742" to="59556906#2" type="bus_bus"/>
    <trip id="bus149" depart="1490.00" from="660881710#0" to="-759168043" type="bus_bus"/>
    <trip id="bus150" depart="1500.00" from="129915065" to="-296896088#2" type="bus_bus"/>
    <trip id="bus151" depart="1510.00" from="587486413" to="603634859" type="bus_bus"/>
    <trip id="bus152" depart="1520.00" from="220813799#0" to="35049499#0" type="bus_bus"/>
    <trip id="bus153" depart="1530.00" from="1079580311" to="689753983" type="bus_bus"/>
    <trip id="bus154" depart="1540.00" from="625093160#0" to="7988531" type="bus_bus"/>
    <trip id="bus155" depart="1550.00" from="59556908#0" to="600711850" type="bus_bus"/>
    <trip id="bus156" depart="1560.00" from="-170000695#1" to="485955803" type="bus_bus"/>
    <trip id="bus157" depart="1570.00" from="170043625#0" to="689753983" type="bus_bus"/>
    <trip id="bus158" depart="1580.00" from="59552742" to="59716282" type="bus_bus"/>
    <trip id="bus159" depart="1590.00" from="59556908#0" to="1103880810" type="bus_bus"/>
    <trip id="bus160" depart="1600.00" from="59552711" to="-329388956" type="bus_bus"/>
    <trip id="bus161" depart="1610.00" from="625093160#0" to="59556906#0" type="bus_bus"/>
    <trip id="bus162" depart="1620.00" from="126765639#0" to="548862172" type="bus_bus"/>
    <trip id="bus163" depart="1630.00" from="27533472" to="126765651#0" type="bus_bus"/>
    <trip id="bus164" depart="1640.00" from="59552742" to="-7988548" type="bus_bus"/>
    <trip id="bus165" depart="1650.00" from="-170000693" to="-660881710#1" type="bus_bus"/>
    <trip id="bus166" depart="1660.00" from="170019201" to="59716282" type="bus_bus"/>
    <trip id="bus167" depart="1670.00" from="8109759" to="1162775046" type="bus_bus"/>
    <trip id="bus168" depart="1680.00" from="456678644#1" to="187285126" type="bus_bus"/>
    <trip id="bus169" depart="1690.00" from="894039050" to="296896077#1" type="bus_bus"/>
    <trip id="bus170" depart="1700.00" from="796275450" to="-329388956" type="bus_bus"/>
    <trip id="bus171" depart="1710.00" from="894039050" to="-548883610" type="bus_bus"/>
    <trip id="bus172" depart="1720.00" from="7988642#1" to="1103880808#0" type="bus_bus"/>
    <trip id="bus173" depart="1730.00" from="-463074434#1" to="235997648#0" type="bus_bus"/>
    <trip id="bus174" depart="1740.00" from="50219639#0" to="1322111544" type="bus_bus"/>
    <trip id="bus175" depart="1750.00" from="380858686" to="288179985#0" type="bus_bus"/>
    <trip id="bus176" depart="1760.00" from="183192595#0" to="319285808#2" type="bus_bus"/>
    <trip id="bus177" depart="1770.00" from="129915065" to="464556600" type="bus_bus"/>
    <trip id="bus178" depart="1780.00" from="-1015089615" to="687050509" type="bus_bus"/>
    <trip id="bus179" depart="1790.00" from="32266091" to="481398535" type="bus_bus"/>
    <trip id="bus180" depart="1800.00" from="54357166" to="456678634#0" type="bus_bus"/>
    <trip id="bus181" depart="1810.00" from="171202437#0" to="-24741755" type="bus_bus"/>
    <trip id="bus182" depart="1820.00" from="464556601" to="1492229431#0" type="bus_bus"/>
    <trip id="bus183" depart="1830.00" from="170000680" to="58722665" type="bus_bus"/>
    <trip id="bus184" depart="1840.00" from="50219635" to="126612905" type="bus_bus"/>
    <trip id="bus185" depart="1850.00" from="16610261" to="202078190" type="bus_bus"/>
    <trip id="bus186" depart="1860.00" from="207233934#3" to="1233530732" type="bus_bus"/>
    <trip id="bus187" depart="1870.00" from="-557465797" to="222031054#0" type="bus_bus"/>
    <trip id="bus188" depart="1880.00" from="796275450" to="457333537#0" type="bus_bus"/>
    <trip id="bus189" depart="1890.00" from="660881710#0" to="34846200" type="bus_bus"/>
    <trip id="bus190" depart="1900.00" from="-1011477960" to="1206485920" type="bus_bus"/>
    <trip id="bus191" depart="1910.00" from="262231193#0" to="32266118#0" type="bus_bus"/>
    <trip id="bus192" depart="1920.00" from="463177310#0" to="26539742" type="bus_bus"/>
    <trip id="bus193" depart="1930.00" from="27056409" to="-759336243#0" type="bus_bus"/>
    <trip id="bus194" depart="1940.00" from="59552742" to="-50219635" type="bus_bus"/>
    <trip id="bus195" depart="1950.00" from="-296659364" to="291749682" type="bus_bus"/>
    <trip id="bus196" depart="1960.00" from="445757872" to="15238105#0" type="bus_bus"/>
    <trip id="bus197" depart="1970.00" from="59556908#0" to="49681114#0" type="bus_bus"/>
    <trip id="bus198" depart="1980.00" from="482241562" to="-759336243#0" type="bus_bus"/>
    <trip id="bus199" depart="1990.00" from="1168961266" to="-129915065" type="bus_bus"/>
    <trip id="bus200" depart="2000.00" from="129915058#0" to="27056413" type="bus_bus"/>
    <trip id="bus201" depart="2010.00" from="60616212#3" to="-24741755" type="bus_bus"/>
    <trip id="bus202" depart="2020.00" from="240381591#0" to="359888873#0" type="bus_bus"/>
    <trip id="bus203" depart="2030.00" from="115891666#0" to="462184879" type="bus_bus"/>
    <trip id="bus204" depart="2040.00" from="296659367" to="1084897573#1" type="bus_bus"/>
    <trip id="bus205" depart="2050.00" from="464551508#0" to="-1091525591" type="bus_bus"/>
    <trip id="bus206" depart="2060.00" from="-456678637#2" to="235997648#0" type="bus_bus"/>
    <trip id="bus207" depart="2070.00" from="1133911657" to="772272443" type="bus_bus"/>
    <trip id="bus208" depart="2080.00" from="31563956" to="-171721790#1" type="bus_bus"/>
    <trip id="bus209" depart="2090.00" from="129915065" to="58722665" type="bus_bus"/>
    <trip id="bus210" depart="2100.00" from="27056409" to="541347665#0" type="bus_bus"/>
    <trip id="bus211" depart="2110.00" from="481230968#0" to="915062437#1" type="bus_bus"/>
    <trip id="bus212" depart="2120.00" from="359888873#0" to="759336243#1" type="bus_bus"/>
    <trip id="bus213" depart="2130.00" from="660881710#0" to="34800654" type="bus_bus"/>
    <trip id="bus214" depart="2140.00" from="50219635" to="280989225#0" type="bus_bus"/>
    <trip id="bus215" depart="2150.00" from="598944885#0" to="299376586#0" type="bus_bus"/>
    <trip id="bus216" depart="2160.00" from="660881710#0" to="489635623#0" type="bus_bus"/>
    <trip id="bus217" depart="2170.00" from="288231840" to="1088265904" type="bus_bus"/>
    <trip id="bus218" depart="2180.00" from="129915065" to="374287480#0" type="bus_bus"/>
    <trip id="bus219" depart="2190.00" from="573201244" to="292058181" type="bus_bus"/>
    <trip id="bus220" depart="2200.00" from="411047573" to="1156986394" type="bus_bus"/>
    <trip id="bus221" depart="2210.00" from="-292058182" to="1206485900" type="bus_bus"/>
    <trip id="bus222" depart="2220.00" from="1365930983" to="1354366253#1" type="bus_bus"/>
    <trip id="bus223" depart="2230.00" from="32266091" to="-37546390" type="bus_bus"/>
    <trip id="bus224" depart="2240.00" from="126765650" to="462184879" type="bus_bus"/>
    <trip id="bus225" depart="2250.00" from="49681113" to="-24741755" type="bus_bus"/>
    <trip id="bus226" depart="2260.00" from="220813799#1" to="299376586#0" type="bus_bus"/>
    <trip id="bus227" depart="2270.00" from="240381591#1" to="-660881710#1" type="bus_bus"/>
    <trip id="bus228" depart="2280.00" from="24301497#0" to="627027218#1" type="bus_bus"/>
    <trip id="bus229" depart="2290.00" from="34879397" to="462184879" type="bus_bus"/>
    <trip id="bus230" depart="2300.00" from="183184922" to="-1091525591" type="bus_bus"/>
    <trip id="bus231" depart="2310.00" from="170212982" to="50219615" type="bus_bus"/>
    <trip id="bus232" depart="2320.00" from="24301385" to="49681042#0" type="bus_bus"/>
    <trip id="bus233" depart="2330.00" from="324045992#0" to="33183112#0" type="bus_bus"/>
    <trip id="bus234" depart="2340.00" from="126612909" to="-759336243#0" type="bus_bus"/>
    <trip id="bus235" depart="2350.00" from="264534309#0" to="-129915065" type="bus_bus"/>
    <trip id="bus236" depart="2360.00" from="170043645" to="459668281#0" type="bus_bus"/>
    <trip id="bus237" depart="2370.00" from="212796643" to="-50219635" type="bus_bus"/>
    <trip id="bus238" depart="2380.00" from="288069912" to="-35967841" type="bus_bus"/>
    <trip id="bus239" depart="2390.00" from="411029244" to="-129915065" type="bus_bus"/>
    <trip id="bus240" depart="2400.00" from="202076596#0" to="311740485" type="bus_bus"/>
    <trip id="bus241" depart="2410.00" from="-170019196" to="385208728" type="bus_bus"/>
    <trip id="bus242" depart="2420.00" from="-60616242" to="264534309#0" type="bus_bus"/>
    <trip id="bus243" depart="2430.00" from="-24741556" to="170043627" type="bus_bus"/>
    <trip id="bus244" depart="2440.00" from="552840033#0" to="170043627" type="bus_bus"/>
    <trip id="bus245" depart="2450.00" from="548883609" to="552840023#0" type="bus_bus"/>
    <trip id="bus246" depart="2460.00" from="129915065" to="-288179987" type="bus_bus"/>
    <trip id="bus247" depart="2470.00" from="-16610261" to="296896088#2" type="bus_bus"/>
    <trip id="bus248" depart="2480.00" from="95842194#1" to="170000691#0" type="bus_bus"/>
    <trip id="bus249" depart="2490.00" from="460847239#0" to="503811360" type="bus_bus"/>
    <trip id="bus250" depart="2500.00" from="463074433" to="50219616#0" type="bus_bus"/>
    <trip id="bus251" depart="2510.00" from="796275450" to="-660881710#1" type="bus_bus"/>
    <trip id="bus252" depart="2520.00" from="-170000679" to="-481230968#1" type="bus_bus"/>
    <trip id="bus253" depart="2530.00" from="-551455122" to="455480607#5" type="bus_bus"/>
    <trip id="bus254" depart="2540.00" from="328773701#0" to="-759336243#0" type="bus_bus"/>
    <trip id="bus255" depart="2550.00" from="1133257417" to="334864581#0" type="bus_bus"/>
    <trip id="bus256" depart="2560.00" from="548862185" to="-329388956" type="bus_bus"/>
    <trip id="bus257" depart="2570.00" from="59556908#0" to="772272443" type="bus_bus"/>
    <trip id="bus258" depart="2580.00" from="-463074433" to="-129915065" type="bus_bus"/>
    <trip id="bus259" depart="2590.00" from="170000678" to="457333537#0" type="bus_bus"/>
    <trip id="bus260" depart="2600.00" from="7988530" to="183184921" type="bus_bus"/>
    <trip id="bus261" depart="2610.00" from="50219635" to="-27533472" type="bus_bus"/>
    <trip id="bus262" depart="2620.00" from="485955800" to="35967847" type="bus_bus"/>
    <trip id="bus263" depart="2630.00" from="60616213" to="32908559" type="bus_bus"/>
    <trip id="bus264" depart="2640.00" from="-548875276#2" to="8109759" type="bus_bus"/>
    <trip id="bus265" depart="2650.00" from="587486413" to="170000687" type="bus_bus"/>
    <trip id="bus266" depart="2660.00" from="25925545" to="170019204" type="bus_bus"/>
    <trip id="bus267" depart="2670.00" from="307214695#1" to="16923057#0" type="bus_bus"/>
    <trip id="bus268" depart="2680.00" from="60616212#3" to="548875280" type="bus_bus"/>
    <trip id="bus269" depart="2690.00" from="-422097018" to="772272443" type="bus_bus"/>
    <trip id="bus270" depart="2700.00" from="455480606" to="549969116" type="bus_bus"/>
    <trip id="bus271" depart="2710.00" from="49681114#0" to="235997648#0" type="bus_bus"/>
    <trip id="bus272" depart="2720.00" from="51138782#0" to="772272443" type="bus_bus"/>
    <trip id="bus273" depart="2730.00" from="1354366162#1" to="541347665#0" type="bus_bus"/>
    <trip id="bus274" depart="2740.00" from="32266091" to="27533468#0" type="bus_bus"/>
    <trip id="bus275" depart="2750.00" from="264534309#0" to="481398535" type="bus_bus"/>
    <trip id="bus276" depart="2760.00" from="133325791#0" to="58722665" type="bus_bus"/>
    <trip id="bus277" depart="2770.00" from="598944885#0" to="-292058179#1" type="bus_bus"/>
    <trip id="bus278" depart="2780.00" from="625093160#4" to="1084897572#1" type="bus_bus"/>
    <trip id="bus279" depart="2790.00" from="280323996" to="34572676" type="bus_bus"/>
    <trip id="bus280" depart="2800.00" from="183184922" to="-129915065" type="bus_bus"/>
    <trip id="bus281" depart="2810.00" from="60616213" to="-551455122" type="bus_bus"/>
    <trip id="bus282" depart="2820.00" from="122108659" to="538081341#0" type="bus_bus"/>
    <trip id="bus283" depart="2830.00" from="170104260" to="600711846" type="bus_bus"/>
    <trip id="bus284" depart="2840.00" from="489635664" to="115868477" type="bus_bus"/>
    <trip id="bus285" depart="2850.00" from="-1206485921" to="753573639" type="bus_bus"/>
    <trip id="bus286" depart="2860.00" from="-296659365" to="481398535" type="bus_bus"/>
    <trip id="bus287" depart="2870.00" from="296659356" to="50219642#0" type="bus_bus"/>
    <trip id="bus288" depart="2880.00" from="485955800" to="410658493" type="bus_bus"/>
    <trip id="bus289" depart="2890.00" from="296659363#0" to="51138784" type="bus_bus"/>
    <trip id="bus290" depart="2900.00" from="-31563951#0" to="-759336243#0" type="bus_bus"/>
    <trip id="bus291" depart="2910.00" from="485955803" to="126775448#0" type="bus_bus"/>
    <trip id="bus292" depart="2920.00" from="34846200" to="27056413" type="bus_bus"/>
    <trip id="bus293" depart="2930.00" from="32266091" to="235997648#0" type="bus_bus"/>
    <trip id="bus294" depart="2940.00" from="548862182#0" to="1492230041" type="bus_bus"/>
    <trip id="bus295" depart="2950.00" from="49681042#0" to="1144471410" type="bus_bus"/>
    <trip id="bus296" depart="2960.00" from="129915065" to="-329388956" type="bus_bus"/>
    <trip id="bus297" depart="2970.00" from="1156986397" to="-329388956" type="bus_bus"/>
    <trip id="bus298" depart="2980.00" from="1133911657" to="-759336243#0" type="bus_bus"/>
    <trip id="bus299" depart="2990.00" from="292058187#0" to="481398535" type="bus_bus"/>
    <trip id="bus300" depart="3000.00" from="894039050" to="293201850" type="bus_bus"/>
    <trip id="bus301" depart="3010.00" from="143841588" to="-296896087#2" type="bus_bus"/>
    <trip id="bus302" depart="3020.00" from="115891666#0" to="-7988548" type="bus_bus"/>
    <trip id="bus303" depart="3030.00" from="1133911657" to="-129915058#1" type="bus_bus"/>
    <trip id="bus304" depart="3040.00" from="32266091" to="1147450681" type="bus_bus"/>
    <trip id="bus305" depart="3050.00" from="894039050" to="299376586#0" type="bus_bus"/>
    <trip id="bus306" depart="3060.00" from="489635604#0" to="-34942579" type="bus_bus"/>
    <trip id="bus307" depart="3070.00" from="625093160#0" to="27796190" type="bus_bus"/>
    <trip id="bus308" depart="3080.00" from="625093160#0" to="31563961" type="bus_bus"/>
    <trip id="bus309" depart="3090.00" from="288069928" to="240381587#1" type="bus_bus"/>
    <trip id="bus310" depart="3100.00" from="1133911657" to="-191115836" type="bus_bus"/>
    <trip id="bus311" depart="3110.00" from="796275450" to="27056413" type="bus_bus"/>
    <trip id="bus312" depart="3120.00" from="59556908#0" to="187641731" type="bus_bus"/>
    <trip id="bus313" depart="3130.00" from="-292058177" to="359888873#0" type="bus_bus"/>
    <trip id="bus314" depart="3140.00" from="-24741556" to="-463074434#1" type="bus_bus"/>
    <trip id="bus315" depart="3150.00" from="32790772#0" to="126765639#0" type="bus_bus"/>
    <trip id="bus316" depart="3160.00" from="943536782" to="-329388956" type="bus_bus"/>
    <trip id="bus317" depart="3170.00" from="573201242" to="334713314" type="bus_bus"/>
    <trip id="bus318" depart="3180.00" from="59552742" to="-759336243#0" type="bus_bus"/>
    <trip id="bus319" depart="3190.00" from="319285808#0" to="24680099" type="bus_bus"/>
    <trip id="bus320" depart="3200.00" from="27056409" to="59556906#2" type="bus_bus"/>
    <trip id="bus321" depart="3210.00" from="915062449" to="126765651#0" type="bus_bus"/>
    <trip id="bus322" depart="3220.00" from="411029243#0" to="34572675" type="bus_bus"/>
    <trip id="bus323" depart="3230.00" from="538081341#0" to="727250790" type="bus_bus"/>
    <trip id="bus324" depart="3240.00" from="1212627952" to="-759336243#0" type="bus_bus"/>
    <trip id="bus325" depart="3250.00" from="464551518#0" to="-49681042#2" type="bus_bus"/>
    <trip id="bus326" depart="3260.00" from="1133911657" to="-263228460" type="bus_bus"/>
    <trip id="bus327" depart="3270.00" from="-10221485#2" to="24680099" type="bus_bus"/>
    <trip id="bus328" depart="3280.00" from="35967848#0" to="1212627953#0" type="bus_bus"/>
    <trip id="bus329" depart="3290.00" from="126765650" to="464551518#0" type="bus_bus"/>