<?xml version="1.0" encoding="UTF-8"?>

<!-- generated on 2026-03-29T18:40:26.868679+07:00 by Eclipse SUMO netedit 1.26.0
<neteditConfiguration xmlns:xsi="http://www.w3.org/2001/XMLSchema-instance" xsi:noNamespaceSchemaLocation="http://sumo.dlr.de/xsd/neteditConfiguration.xsd">

    <input>
        <sumo-net-file value="F:\Sumo\tools\2026-03-29-18-19-33\osm.net.xml.gz"/>
    </input>

    <output>
        <output-file value="F:\Sumo\tools\2026-03-29-18-19-33\osm.net.xml.gz"/>
        <output.street-names value="true"/>
    </output>

    <processing>
        <geometry.min-radius.fix.railways value="false"/>
        <geometry.avoid-overlap value="false"/>
        <geometry.max-grade.fix value="false"/>
        <offset.disable-normalization value="true"/>
        <lefthand value="0"/>
    </processing>

    <junctions>
        <no-turnarounds value="true"/>
        <junctions.corner-detail value="5"/>
        <junctions.limit-turn-speed value="5.50"/>
        <rectangular-lane-cut value="0"/>
    </junctions>

    <pedestrian>
        <walkingareas value="0"/>
    </pedestrian>

</neteditConfiguration>
-->

<net version="1.20" junctionCornerDetail="5" limitTurnSpeed="5.50" avoidOverlap="0" xmlns:xsi="http://www.w3.org/2001/XMLSchema-instance" xsi:noNamespaceSchemaLocation="http://sumo.dlr.de/xsd/net_file.xsd">

    <location netOffset="-347635.30,-5255739.76" convBoundary="231.88,0.00,6107.59,4454.07" origBoundary="18.977814,47.438287,19.059729,47.479233" projParameter="+proj=utm +zone=34 +ellps=WGS84 +datum=WGS84 +units=m +no_defs"/>

    <type id="highway.footway" priority="1" numLanes="1" speed="2.78" allow="pedestrian" oneway="1" width="2.00"/>
    <type id="highway.primary" priority="12" numLanes="2" speed="27.78" disallow="tram rail_urban rail rail_electric rail_fast ship container cable_car subway aircraft wheelchair scooter drone" oneway="0"/>
    <type id="highway.primary_link" priority="7" numLanes="1" speed="22.22" disallow="tram rail_urban rail rail_electric rail_fast ship container cable_car subway aircraft wheelchair scooter drone" oneway="0"/>
    <type id="highway.residential" priority="3" numLanes="1" speed="13.89" disallow="tram rail_urban rail rail_electric rail_fast ship container cable_car subway aircraft wheelchair scooter drone" oneway="0"/>
    <type id="highway.secondary" priority="11" numLanes="1" speed="27.78" disallow="tram rail_urban rail rail_electric rail_fast ship container cable_car subway aircraft wheelchair scooter drone" oneway="0"/>
    <type id="highway.secondary_link" priority="6" numLanes="1" speed="22.22" disallow="tram rail_urban rail rail_electric rail_fast ship container cable_car subway aircraft wheelchair scooter drone" oneway="0"/>
    <type id="highway.tertiary" priority="10" numLanes="1" speed="22.22" disallow="tram rail_urban rail rail_electric rail_fast ship container cable_car subway aircraft wheelchair scooter drone" oneway="0"/>
    <type id="highway.tertiary_link" priority="5" numLanes="1" speed="22.22" disallow="tram rail_urban rail rail_electric rail_fast ship container cable_car subway aircraft wheelchair scooter drone" oneway="0"/>
    <type id="highway.unclassified" priority="4" numLanes="1" speed="13.89" disallow="tram rail_urban rail rail_electric rail_fast ship container cable_car subway aircraft wheelchair scooter drone" oneway="0"/>
    <type id="railway.tram" priority="17" numLanes="1" speed="13.89" allow="tram" oneway="1"/>

    <edge id=":10101430321_0" function="internal">
        <lane id=":10101430321_0_0" index="0" disallow="tram rail_urban rail rail_electric rail_fast ship container cable_car subway aircraft wheelchair scooter drone" speed="13.89" length="8.19" shape="4938.72,3106.79 4939.74,3108.96 4940.78,3110.28 4941.84,3111.60 4942.90,3113.75"/>
        <lane id=":10101430321_0_1" index="1" disallow="tram rail_urban rail rail_electric rail_fast ship container cable_car subway aircraft wheelchair scooter drone" speed="13.89" length="8.19" shape="4938.72,3106.79 4939.27,3109.14 4939.28,3110.83 4939.30,3112.52 4939.89,3114.86"/>
    </edge>
    <edge id=":10652636736_0" function="internal">
        <lane id=":10652636736_0_0" index="0" disallow="tram rail_urban rail rail_electric rail_fast ship container cable_car subway aircraft wheelchair scooter drone" speed="11.11" length="6.89" shape="4667.01,2714.95 4665.10,2714.21 4663.74,2713.68 4662.37,2713.49 4660.40,2713.76"/>
    </edge>
    <edge id=":10652636736_1" function="internal">
        <lane id=":10652636736_1_0" index="0" disallow="tram rail_urban rail rail_electric rail_fast ship container cable_car subway aircraft wheelchair scooter drone" speed="13.89" length="7.78" shape="4668.02,2712.20 4660.40,2713.76"/>
    </edge>
    <edge id=":10676987907_0" function="internal">
        <lane id=":10676987907_0_0" index="0" disallow="tram rail_urban rail rail_electric rail_fast ship container cable_car subway aircraft wheelchair scooter drone" speed="13.89" length="8.16" shape="5629.93,2824.36 5630.49,2826.71 5631.23,2828.25 5631.95,2829.78 5632.45,2832.14"/>
        <lane id=":10676987907_0_1" index="1" disallow="tram rail_urban rail rail_electric rail_fast ship container cable_car subway aircraft wheelchair scooter drone" speed="13.89" length="8.16" shape="5626.76,2824.77 5627.31,2827.10 5628.05,2828.62 5628.77,2830.13 5629.26,2832.47"/>
        <lane id=":10676987907_0_2" index="2" disallow="tram rail_urban rail rail_electric rail_fast ship container cable_car subway aircraft wheelchair scooter drone" speed="13.89" length="8.16" shape="5626.76,2824.77 5626.81,2827.15 5626.46,2828.78 5626.09,2830.41 5626.08,2832.79"/>
    </edge>
    <edge id=":10759264590_0" function="internal">
        <lane id=":10759264590_0_0" index="0" disallow="tram rail_urban rail rail_electric rail_fast ship container cable_car subway aircraft wheelchair scooter drone" speed="13.89" length="8.20" shape="5309.45,3921.63 5311.81,3921.18 5313.35,3920.49 5314.88,3919.79 5317.23,3919.29"/>
        <lane id=":10759264590_0_1" index="1" disallow="tram rail_urban rail rail_electric rail_fast ship container cable_car subway aircraft wheelchair scooter drone" speed="13.89" length="8.20" shape="5309.72,3924.82 5312.09,3924.37 5313.65,3923.68 5315.19,3922.97 5317.56,3922.48"/>
    </edge>
    <edge id=":10782291814_0" function="internal">
        <lane id=":10782291814_0_0" index="0" disallow="tram rail_urban rail rail_electric rail_fast ship container cable_car subway aircraft wheelchair scooter drone" speed="13.89" length="8.21" shape="5445.57,3896.35 5447.88,3895.71 5449.36,3894.91 5450.84,3894.10 5453.15,3893.44"/>
        <lane id=":10782291814_0_1" index="1" disallow="tram rail_urban rail rail_electric rail_fast ship container cable_car subway aircraft wheelchair scooter drone" speed="13.89" length="8.21" shape="5446.08,3899.50 5448.41,3898.87 5449.90,3898.06 5451.39,3897.25 5453.71,3896.59"/>
        <lane id=":10782291814_0_2" index="2" disallow="tram rail_urban rail rail_electric rail_fast ship container cable_car subway aircraft wheelchair scooter drone" speed="13.89" length="8.21" shape="5446.08,3899.50 5448.50,3899.36 5450.17,3899.64 5451.85,3899.91 5454.26,3899.74"/>
    </edge>
    <edge id=":10870566864_0" function="internal">
        <lane id=":10870566864_0_0" index="0" disallow="tram rail_urban rail rail_electric rail_fast ship container cable_car subway aircraft wheelchair scooter drone" speed="13.89" length="7.85" shape="4974.87,3246.18 4975.55,3248.37 4976.41,3249.73 4977.34,3251.08 4978.22,3253.22"/>
    </edge>
    <edge id=":11179612562_0" function="internal">
        <lane id=":11179612562_0_0" index="0" disallow="tram rail_urban rail rail_electric rail_fast ship container cable_car subway aircraft wheelchair scooter drone" speed="13.89" length="6.66" shape="2622.94,2815.08 2624.21,2816.54 2625.38,2817.28 2626.57,2818.00 2627.89,2819.43"/>
        <lane id=":11179612562_0_1" index="1" disallow="tram rail_urban rail rail_electric rail_fast ship container cable_car subway aircraft wheelchair scooter drone" speed="13.89" length="6.66" shape="2622.94,2815.08 2623.80,2816.83 2624.07,2818.19 2624.35,2819.54 2625.26,2821.26"/>
        <lane id=":11179612562_0_2" index="2" disallow="tram rail_urban rail rail_electric rail_fast ship container cable_car subway aircraft wheelchair scooter drone" speed="13.89" length="6.66" shape="2620.31,2816.91 2621.17,2818.66 2621.44,2820.02 2621.73,2821.37 2622.63,2823.08"/>
    </edge>
    <edge id=":11179612564_0" function="internal">
        <lane id=":11179612564_0_0" index="0" disallow="tram rail_urban rail rail_electric rail_fast ship container cable_car subway aircraft wheelchair scooter drone" speed="13.89" length="8.12" shape="2615.94,2807.49 2617.52,2809.31 2618.88,2810.31 2620.21,2811.34 2621.72,2813.20"/>
        <lane id=":11179612564_0_1" index="1" disallow="tram rail_urban rail rail_electric rail_fast ship container cable_car subway aircraft wheelchair scooter drone" speed="13.89" length="8.12" shape="2613.32,2809.32 2614.88,2811.11 2616.22,2812.10 2617.55,2813.11 2619.04,2814.94"/>
    </edge>
    <edge id=":11193962976_0" function="internal">
        <lane id=":11193962976_0_0" index="0" disallow="tram rail_urban rail rail_electric rail_fast ship container cable_car subway aircraft wheelchair scooter drone" speed="13.89" length="8.21" shape="3539.17,2950.55 3541.45,2949.77 3542.89,2948.88 3544.33,2947.99 3546.62,2947.22"/>
        <lane id=":11193962976_0_1" index="1" disallow="tram rail_urban rail rail_electric rail_fast ship container cable_car subway aircraft wheelchair scooter drone" speed="13.89" length="8.21" shape="3539.17,2950.55 3541.56,2950.26 3543.25,2950.44 3544.93,2950.62 3547.32,2950.34"/>
    </edge>
    <edge id=":11230619628_0" function="internal">
        <lane id=":11230619628_0_0" index="0" disallow="tram rail_urban rail rail_electric rail_fast ship container cable_car subway aircraft wheelchair scooter drone" speed="13.89" length="8.15" shape="2755.70,3128.38 2753.47,3127.46 2751.81,3127.17 2750.15,3126.86 2747.95,3125.88"/>
        <lane id=":11230619628_0_1" index="1" disallow="tram rail_urban rail rail_electric rail_fast ship container cable_car subway aircraft wheelchair scooter drone" speed="13.89" length="8.15" shape="2757.22,3125.57 2755.02,3124.66 2753.37,3124.38 2751.73,3124.08 2749.56,3123.11"/>
    </edge>
    <edge id=":11234777938_0" function="internal">
        <lane id=":11234777938_0_0" index="0" disallow="tram rail_urban rail rail_electric rail_fast ship container cable_car subway aircraft wheelchair scooter drone" speed="13.89" length="8.21" shape="2782.66,3145.21 2780.47,3144.22 2778.80,3143.89 2777.14,3143.56 2774.94,3142.57"/>
        <lane id=":11234777938_0_1" index="1" disallow="tram rail_urban rail rail_electric rail_fast ship container cable_car subway aircraft wheelchair scooter drone" speed="13.89" length="8.21" shape="2782.66,3145.21 2780.72,3143.79 2779.61,3142.51 2778.50,3141.23 2776.55,3139.81"/>
        <lane id=":11234777938_0_2" index="2" disallow="tram rail_urban rail rail_electric rail_fast ship container cable_car subway aircraft wheelchair scooter drone" speed="13.89" length="8.21" shape="2784.27,3142.45 2782.33,3141.03 2781.22,3139.75 2780.11,3138.46 2778.16,3137.04"/>
    </edge>
    <edge id=":11446343963_0" function="internal">
        <lane id=":11446343963_0_0" index="0" disallow="tram rail_urban rail rail_electric rail_fast ship container cable_car subway aircraft wheelchair scooter drone" speed="13.89" length="8.21" shape="4162.01,2577.80 4162.42,2580.17 4163.08,2581.73 4163.74,2583.29 4164.16,2585.66"/>
        <lane id=":11446343963_0_1" index="1" disallow="tram rail_urban rail rail_electric rail_fast ship container cable_car subway aircraft wheelchair scooter drone" speed="13.89" length="8.21" shape="4162.01,2577.80 4161.92,2580.21 4161.48,2581.85 4161.05,2583.49 4160.97,2585.89"/>
    </edge>
    <edge id=":11446343965_0" function="internal">
        <lane id=":11446343965_0_0" index="0" disallow="tram rail_urban rail rail_electric rail_fast ship container cable_car subway aircraft wheelchair scooter drone" speed="13.89" length="8.03" shape="4134.11,2119.41 4133.77,2117.10 4133.15,2115.58 4132.47,2114.06 4132.00,2111.76"/>
        <lane id=":11446343965_0_1" index="1" disallow="tram rail_urban rail rail_electric rail_fast ship container cable_car subway aircraft wheelchair scooter drone" speed="13.89" length="8.03" shape="4134.11,2119.41 4134.27,2117.03 4134.74,2115.42 4135.16,2113.82 4135.19,2111.46"/>
    </edge>
    <edge id=":1159062449_0" function="internal">
        <lane id=":1159062449_0_0" index="0" disallow="tram rail_urban rail rail_electric rail_fast ship container cable_car subway aircraft wheelchair scooter drone" speed="13.89" length="8.41" shape="5225.37,2079.16 5223.02,2080.07 5221.69,2081.41 5220.35,2082.75 5218.00,2083.65"/>
        <lane id=":1159062449_0_1" index="1" disallow="tram rail_urban rail rail_electric rail_fast ship container cable_car subway aircraft wheelchair scooter drone" speed="13.89" length="8.41" shape="5225.37,2079.16 5217.48,2080.49"/>
    </edge>
    <edge id=":1159062449_2" function="internal">
        <lane id=":1159062449_2_0" index="0" disallow="tram rail_urban rail rail_electric rail_fast ship container cable_car subway aircraft wheelchair scooter drone" speed="13.89" length="7.98" shape="5216.95,2077.34 5224.83,2076.01"/>
    </edge>
    <edge id=":1200956396_0" function="internal">
        <lane id=":1200956396_0_0" index="0" disallow="tram rail_urban rail rail_electric rail_fast ship container cable_car subway aircraft wheelchair scooter drone" speed="16.67" length="8.20" shape="5168.90,2186.15 5168.02,2183.90 5167.06,2182.49 5166.11,2181.08 5165.26,2178.82"/>
        <lane id=":1200956396_0_1" index="1" disallow="tram rail_urban rail rail_electric rail_fast ship container cable_car subway aircraft wheelchair scooter drone" speed="16.67" length="8.20" shape="5171.99,2185.29 5171.10,2183.05 5170.15,2181.65 5169.20,2180.25 5168.35,2178.01"/>
        <lane id=":1200956396_0_2" index="2" disallow="tram rail_urban rail rail_electric rail_fast ship container cable_car subway aircraft wheelchair scooter drone" speed="16.67" length="8.20" shape="5171.99,2185.29 5171.59,2182.93 5171.69,2181.25 5171.81,2179.56 5171.45,2177.19"/>
    </edge>
    <edge id=":1204387705_0" function="internal">
        <lane id=":1204387705_0_0" index="0" disallow="tram rail_urban rail rail_electric rail_fast ship container cable_car subway aircraft wheelchair scooter drone" speed="13.89" length="7.89" shape="3348.36,1804.04 3346.29,1803.18 3344.73,1802.97 3343.14,1802.82 3341.00,1802.11"/>
        <lane id=":1204387705_0_1" index="1" disallow="tram rail_urban rail rail_electric rail_fast ship container cable_car subway aircraft wheelchair scooter drone" speed="13.89" length="7.89" shape="3349.92,1801.25 3347.79,1800.35 3346.17,1800.11 3344.53,1799.94 3342.32,1799.20"/>
        <lane id=":1204387705_0_2" index="2" disallow="tram rail_urban rail rail_electric rail_fast ship container cable_car subway aircraft wheelchair scooter drone" speed="13.89" length="7.89" shape="3349.92,1801.25 3347.98,1799.88 3346.84,1798.66 3345.67,1797.48 3343.64,1796.29"/>
    </edge>
    <edge id=":12170691371_0" function="internal">
        <lane id=":12170691371_0_0" index="0" disallow="pedestrian tram rail_urban rail rail_electric rail_fast ship container cable_car subway aircraft wheelchair scooter drone" speed="16.67" length="0.30" shape="5299.61,2682.18 5299.68,2682.47"/>
        <lane id=":12170691371_0_1" index="1" disallow="pedestrian tram rail_urban rail rail_electric rail_fast ship container cable_car subway aircraft wheelchair scooter drone" speed="16.67" length="0.30" shape="5296.50,2682.91 5296.57,2683.20"/>
    </edge>
    <edge id=":12207809259_0" function="internal">
        <lane id=":12207809259_0_0" index="0" disallow="tram rail_urban rail rail_electric rail_fast ship container cable_car subway aircraft wheelchair scooter drone" speed="18.05" length="8.06" shape="4633.00,2032.29 4631.94,2030.16 4630.88,2028.85 4629.86,2027.53 4628.91,2025.36"/>
        <lane id=":12207809259_0_1" index="1" disallow="tram rail_urban rail rail_electric rail_fast ship container cable_car subway aircraft wheelchair scooter drone" speed="18.05" length="8.06" shape="4633.00,2032.29 4632.42,2030.02 4632.41,2028.37 4632.44,2026.71 4631.97,2024.39"/>
    </edge>
    <edge id=":12207809278_0" function="internal">
        <lane id=":12207809278_0_0" index="0" disallow="tram rail_urban rail rail_electric rail_fast ship container cable_car subway aircraft wheelchair scooter drone" speed="13.89" length="8.15" shape="4599.43,1895.16 4598.66,1892.91 4597.75,1891.50 4596.81,1890.09 4595.94,1887.86"/>
    </edge>
    <edge id=":1307889666_0" function="internal">
        <lane id=":1307889666_0_0" index="0" disallow="tram rail_urban rail rail_electric rail_fast ship container cable_car subway aircraft wheelchair scooter drone" speed="13.89" length="8.05" shape="3458.14,2978.56 3455.92,2979.37 3454.51,2980.27 3453.10,2981.13 3450.85,2981.83"/>
    </edge>
    <edge id=":1308092206_0" function="internal">
        <lane id=":1308092206_0_0" index="0" disallow="tram rail_urban rail rail_electric rail_fast ship container cable_car subway aircraft wheelchair scooter drone" speed="13.89" length="15.40" shape="3425.48,2970.03 3429.16,2971.19 3432.96,2972.21 3436.78,2972.75 3440.52,2972.48"/>
    </edge>
    <edge id=":1308092206_1" function="internal">
        <lane id=":1308092206_1_0" index="0" disallow="tram rail_urban rail rail_electric rail_fast ship container cable_car subway aircraft wheelchair scooter drone" speed="13.89" length="14.74" shape="3425.96,2974.59 3430.54,2973.57 3434.07,2973.19 3437.18,2972.97 3440.52,2972.48"/>
    </edge>
    <edge id=":1308092210_0" function="internal">
        <lane id=":1308092210_0_0" index="0" disallow="tram rail_urban rail rail_electric rail_fast ship container cable_car subway aircraft wheelchair scooter drone" speed="13.89" length="7.26" shape="3416.70,2971.75 3415.99,2964.53"/>
    </edge>
    <edge id=":1308092210_1" function="internal">
        <lane id=":1308092210_1_0" index="0" disallow="tram rail_urban rail rail_electric rail_fast ship container cable_car subway aircraft wheelchair scooter drone" speed="6.13" length="2.13" shape="3416.70,2971.75 3417.01,2969.89 3417.22,2969.77"/>
    </edge>
    <edge id=":1308092210_2" function="internal">
        <lane id=":1308092210_2_0" index="0" disallow="tram rail_urban rail rail_electric rail_fast ship container cable_car subway aircraft wheelchair scooter drone" speed="3.65" length="1.44" shape="3416.70,2971.75 3417.34,2970.46"/>
    </edge>
    <edge id=":1308092210_6" function="internal">
        <lane id=":1308092210_6_0" index="0" disallow="tram rail_urban rail rail_electric rail_fast ship container cable_car subway aircraft wheelchair scooter drone" speed="6.13" length="8.41" shape="3417.22,2969.77 3418.54,2968.97 3421.30,2969.00 3425.29,2969.97"/>
    </edge>
    <edge id=":1308092210_7" function="internal">
        <lane id=":1308092210_7_0" index="0" disallow="tram rail_urban rail rail_electric rail_fast ship container cable_car subway aircraft wheelchair scooter drone" speed="3.65" length="3.23" shape="3417.34,2970.46 3418.08,2969.96 3418.93,2970.25 3419.88,2971.34"/>
    </edge>
    <edge id=":1308092210_3" function="internal">
        <lane id=":1308092210_3_0" index="0" disallow="tram rail_urban rail rail_electric rail_fast ship container cable_car subway aircraft wheelchair scooter drone" speed="7.31" length="7.43" shape="3422.29,2963.44 3422.87,2966.06 3423.56,2968.03 3424.36,2969.33 3425.29,2969.97"/>
    </edge>
    <edge id=":1308092210_4" function="internal">
        <lane id=":1308092210_4_0" index="0" disallow="tram rail_urban rail rail_electric rail_fast ship container cable_car subway aircraft wheelchair scooter drone" speed="13.89" length="8.51" shape="3422.29,2963.44 3422.14,2965.81 3421.15,2967.38 3420.13,2968.95 3419.88,2971.34"/>
    </edge>
    <edge id=":1308092210_5" function="internal">
        <lane id=":1308092210_5_0" index="0" disallow="tram rail_urban rail rail_electric rail_fast ship container cable_car subway aircraft wheelchair scooter drone" speed="3.65" length="1.44" shape="3419.14,2963.98 3418.56,2965.30"/>
    </edge>
    <edge id=":1308092210_8" function="internal">
        <lane id=":1308092210_8_0" index="0" disallow="tram rail_urban rail rail_electric rail_fast ship container cable_car subway aircraft wheelchair scooter drone" speed="3.65" length="3.23" shape="3418.56,2965.30 3417.84,2965.83 3416.98,2965.58 3415.99,2964.53"/>
    </edge>
    <edge id=":1365277336_0" function="internal">
        <lane id=":1365277336_0_0" index="0" disallow="pedestrian tram rail_urban rail rail_electric rail_fast ship container cable_car subway aircraft wheelchair scooter drone" speed="27.78" length="0.27" shape="2120.81,2717.68 2120.62,2717.62"/>
        <lane id=":1365277336_0_1" index="1" disallow="pedestrian tram rail_urban rail rail_electric rail_fast ship container cable_car subway aircraft wheelchair scooter drone" speed="27.78" length="0.27" shape="2121.87,2714.66 2121.61,2714.58"/>
        <lane id=":1365277336_0_2" index="2" disallow="pedestrian tram rail_urban rail rail_electric rail_fast ship container cable_car subway aircraft wheelchair scooter drone" speed="27.78" length="0.27" shape="2122.93,2711.65 2122.60,2711.53"/>
    </edge>
    <edge id=":13674673834_0" function="internal">
        <lane id=":13674673834_0_0" index="0" disallow="pedestrian tram rail_urban rail rail_electric rail_fast ship container cable_car subway aircraft wheelchair scooter drone" speed="16.67" length="0.30" shape="5351.68,2935.59 5351.72,2935.88"/>
        <lane id=":13674673834_0_1" index="1" disallow="pedestrian tram rail_urban rail rail_electric rail_fast ship container cable_car subway aircraft wheelchair scooter drone" speed="16.67" length="0.30" shape="5348.52,2936.08 5348.56,2936.37"/>
    </edge>
    <edge id=":1398989689_0" function="internal">
        <lane id=":1398989689_0_0" index="0" disallow="pedestrian tram rail_urban rail rail_electric rail_fast ship container cable_car subway aircraft wheelchair scooter drone" speed="13.89" length="5.62" shape="4231.53,3883.84 4231.69,3885.49 4232.16,3886.59 4232.59,3887.69 4232.68,3889.34"/>
        <lane id=":1398989689_0_1" index="1" disallow="pedestrian tram rail_urban rail rail_electric rail_fast ship container cable_car subway aircraft wheelchair scooter drone" speed="13.89" length="5.62" shape="4231.53,3883.84 4231.20,3885.43 4230.56,3886.44 4229.90,3887.44 4229.49,3889.03"/>
        <lane id=":1398989689_0_2" index="2" disallow="pedestrian tram rail_urban rail rail_electric rail_fast ship container cable_car subway aircraft wheelchair scooter drone" speed="13.89" length="5.62" shape="4228.34,3883.68 4228.00,3885.24 4227.37,3886.21 4226.72,3887.18 4226.31,3888.72"/>
    </edge>
    <edge id=":1403172711_0" function="internal">
        <lane id=":1403172711_0_0" index="0" disallow="tram rail_urban rail rail_electric rail_fast ship container cable_car subway aircraft wheelchair scooter drone" speed="13.89" length="7.87" shape="3411.22,2015.11 3407.58,2022.03"/>
        <lane id=":1403172711_0_1" index="1" disallow="tram rail_urban rail rail_electric rail_fast ship container cable_car subway aircraft wheelchair scooter drone" speed="13.89" length="7.87" shape="3408.41,2013.58 3404.73,2020.59"/>
    </edge>
    <edge id=":1403172711_2" function="internal">
        <lane id=":1403172711_2_0" index="0" disallow="tram rail_urban rail rail_electric rail_fast ship container cable_car subway aircraft wheelchair scooter drone" speed="13.89" length="8.45" shape="3401.87,2019.15 3402.55,2016.70 3402.29,2014.80 3402.05,2012.92 3402.79,2010.51"/>
        <lane id=":1403172711_2_1" index="1" disallow="tram rail_urban rail rail_electric rail_fast ship container cable_car subway aircraft wheelchair scooter drone" speed="13.89" length="8.45" shape="3401.87,2019.15 3405.60,2012.04"/>
    </edge>
    <edge id=":1403172735_0" function="internal">
        <lane id=":1403172735_0_0" index="0" disallow="pedestrian tram rail_urban rail rail_electric rail_fast ship container cable_car subway aircraft wheelchair scooter drone" speed="27.78" length="7.89" shape="483.12,2319.13 475.54,2316.52"/>
        <lane id=":1403172735_0_1" index="1" disallow="pedestrian tram rail_urban rail rail_electric rail_fast ship container cable_car subway aircraft wheelchair scooter drone" speed="27.78" length="7.89" shape="484.10,2316.08 476.64,2313.52"/>
        <lane id=":1403172735_0_2" index="2" disallow="pedestrian tram rail_urban rail rail_electric rail_fast ship container cable_car subway aircraft wheelchair scooter drone" speed="27.78" length="7.89" shape="485.08,2313.04 477.74,2310.51"/>
    </edge>
    <edge id=":1403172737_0" function="internal">
        <lane id=":1403172737_0_0" index="0" disallow="pedestrian tram rail_urban rail rail_electric rail_fast ship container cable_car subway aircraft wheelchair scooter drone" speed="27.78" length="8.00" shape="1082.10,2447.96 1089.92,2449.61"/>
        <lane id=":1403172737_0_1" index="1" disallow="pedestrian tram rail_urban rail rail_electric rail_fast ship container cable_car subway aircraft wheelchair scooter drone" speed="27.78" length="8.00" shape="1081.44,2451.09 1089.26,2452.74"/>
        <lane id=":1403172737_0_2" index="2" disallow="pedestrian tram rail_urban rail rail_electric rail_fast ship container cable_car subway aircraft wheelchair scooter drone" speed="27.78" length="8.00" shape="1080.77,2454.22 1088.61,2455.88"/>
    </edge>
    <edge id=":1404431648_0" function="internal">
        <lane id=":1404431648_0_0" index="0" disallow="tram rail_urban rail rail_electric rail_fast ship container cable_car subway aircraft wheelchair scooter drone" speed="13.89" length="8.21" shape="4583.56,4155.58 4585.73,4154.55 4587.04,4153.50 4588.35,4152.43 4590.51,4151.38"/>
        <lane id=":1404431648_0_1" index="1" disallow="tram rail_urban rail rail_electric rail_fast ship container cable_car subway aircraft wheelchair scooter drone" speed="13.89" length="8.21" shape="4584.63,4158.59 4586.81,4157.57 4588.13,4156.51 4589.44,4155.44 4591.61,4154.39"/>
        <lane id=":1404431648_0_2" index="2" disallow="tram rail_urban rail rail_electric rail_fast ship container cable_car subway aircraft wheelchair scooter drone" speed="13.89" length="8.21" shape="4585.70,4161.61 4587.88,4160.58 4589.21,4159.52 4590.53,4158.45 4592.70,4157.39"/>
        <lane id=":1404431648_0_3" index="3" disallow="tram rail_urban rail rail_electric rail_fast ship container cable_car subway aircraft wheelchair scooter drone" speed="13.89" length="8.21" shape="4585.70,4161.61 4588.06,4161.05 4589.76,4161.02 4591.46,4160.99 4593.80,4160.40"/>
    </edge>
    <edge id=":1467641448_0" function="internal">
        <lane id=":1467641448_0_0" index="0" disallow="tram rail_urban rail rail_electric rail_fast ship container cable_car subway aircraft wheelchair scooter drone" speed="13.89" length="10.24" shape="2066.07,2766.40 2063.51,2764.81 2062.02,2763.30 2060.58,2761.74 2058.16,2760.00"/>
    </edge>
    <edge id=":1467641448_1" function="internal">
        <lane id=":1467641448_1_0" index="0" disallow="tram rail_urban rail rail_electric rail_fast ship container cable_car subway aircraft wheelchair scooter drone" speed="13.89" length="9.67" shape="2067.47,2763.52 2065.01,2762.12 2063.55,2760.82 2062.26,2759.28 2060.33,2757.14"/>
    </edge>
    <edge id=":1503741428_0" function="internal">
        <lane id=":1503741428_0_0" index="0" disallow="tram rail_urban rail rail_electric rail_fast ship container cable_car subway aircraft wheelchair scooter drone" speed="13.89" length="8.21" shape="5708.93,3931.77 5711.02,3932.94 5712.63,3933.39 5714.26,3933.84 5716.37,3934.96"/>
        <lane id=":1503741428_0_1" index="1" disallow="tram rail_urban rail rail_electric rail_fast ship container cable_car subway aircraft wheelchair scooter drone" speed="13.89" length="8.21" shape="5707.09,3934.39 5709.19,3935.56 5710.81,3936.03 5712.45,3936.48 5714.58,3937.62"/>
        <lane id=":1503741428_0_2" index="2" disallow="tram rail_urban rail rail_electric rail_fast ship container cable_car subway aircraft wheelchair scooter drone" speed="13.89" length="8.21" shape="5705.24,3937.01 5707.36,3938.19 5709.00,3938.66 5710.64,3939.12 5712.78,3940.27"/>
    </edge>
    <edge id=":150552204_0" function="internal">
        <lane id=":150552204_0_0" index="0" disallow="tram rail_urban rail rail_electric rail_fast ship container cable_car subway aircraft wheelchair scooter drone" speed="19.44" length="0.37" shape="2770.54,1583.10 2770.49,1583.08 2770.46,1583.07 2770.42,1583.05 2770.37,1583.04"/>
        <lane id=":150552204_0_1" index="1" disallow="tram rail_urban rail rail_electric rail_fast ship container cable_car subway aircraft wheelchair scooter drone" speed="19.44" length="0.37" shape="2771.89,1580.19 2771.74,1580.12 2771.63,1580.08 2771.52,1580.05 2771.36,1580.00"/>
    </edge>
    <edge id=":150552204_2" function="internal">
        <lane id=":150552204_2_0" index="0" disallow="tram rail_urban rail rail_electric rail_fast ship container cable_car subway aircraft wheelchair scooter drone" speed="16.66" length="1.31" shape="2774.34,1570.87 2774.80,1571.05 2775.10,1571.21 2775.40,1571.38 2775.84,1571.61"/>
        <lane id=":150552204_2_1" index="1" disallow="tram rail_urban rail rail_electric rail_fast ship container cable_car subway aircraft wheelchair scooter drone" speed="16.66" length="1.31" shape="2773.35,1573.91 2773.71,1574.05 2773.93,1574.19 2774.16,1574.34 2774.50,1574.52"/>