<?xml version="1.0" encoding="UTF-8"?>

<!-- generated on 2026-03-29 19:10:06.104553 by Eclipse SUMO randomTrips.py v1_26_0+0000-fa7df22d7f1
<configuration>
    <net-file value="osm.net.xml.gz"/>
    <output-trip-file value="osm.passenger.trips.xml"/>
    <route-file value="osm.passenger.rou.xml"/>
    <prefix value="car"/>
    <vehicle-class value="passenger"/>
    <fringe-factor value="20"/>
    <end value="10800.0"/>
    <period value="0.75"/>
</configuration>
-->

<routes xmlns:xsi="http://www.w3.org/2001/XMLSchema-instance" xsi:noNamespaceSchemaLocation="http://sumo.dlr.de/xsd/routes_file.xsd">
    <vType id="car_passenger" vClass="passenger"/>
    <trip id="car0" depart="0.00" from="456678637#0" to="-129915065" type="car_passenger"/>
    <trip id="car1" depart="0.75" from="1432084980#0" to="-759336243#0" type="car_passenger"/>
    <trip id="car2" depart="1.50" from="51850996" to="457333537#0" type="car_passenger"/>
    <trip id="car3" depart="2.25" from="660881710#0" to="-292058179#1" type="car_passenger"/>
    <trip id="car4" depart="3.00" from="24301663" to="-129915065" type="car_passenger"/>
    <trip id="car5" depart="3.75" from="126612905" to="286707429#2" type="car_passenger"/>
    <trip id="car6" depart="4.50" from="-170019196" to="-660881710#1" type="car_passenger"/>
    <trip id="car7" depart="5.25" from="460847239#0" to="299376586#0" type="car_passenger"/>
    <trip id="car8" depart="6.00" from="126612909" to="324061358" type="car_passenger"/>
    <trip id="car9" depart="6.75" from="59556908#0" to="-1133257413" type="car_passenger"/>
    <trip id="car10" depart="7.50" from="170104260" to="-481398535" type="car_passenger"/>
    <trip id="car11" depart="8.25" from="7988529" to="15391661#0" type="car_passenger"/>
    <trip id="car12" depart="9.00" from="-315630017#1" to="-296659365" type="car_passenger"/>
    <trip id="car13" depart="9.75" from="60616212#0" to="33183112#0" type="car_passenger"/>
    <trip id="car14" depart="10.50" from="59556907#0" to="481398535" type="car_passenger"/>
    <trip id="car15" depart="11.25" from="32266091" to="7988469" type="car_passenger"/>
    <trip id="car16" depart="12.00" from="183184922" to="299376586#0" type="car_passenger"/>
    <trip id="car17" depart="12.75" from="598944884#0" to="34942578" type="car_passenger"/>
    <trip id="car18" depart="13.50" from="625060015" to="319285808#3" type="car_passenger"/>
    <trip id="car19" depart="14.25" from="49681045" to="-170043629" type="car_passenger"/>
    <trip id="car20" depart="15.00" from="126765650" to="1211205542" type="car_passenger"/>
    <trip id="car21" depart="15.75" from="-35967841" to="115891666#2" type="car_passenger"/>
    <trip id="car22" depart="16.50" from="455480606" to="170019204" type="car_passenger"/>
    <trip id="car23" depart="17.25" from="183184922" to="-759168043" type="car_passenger"/>
    <trip id="car24" depart="18.00" from="133325790#0" to="689753983" type="car_passenger"/>
    <trip id="car25" depart="18.75" from="459668281#0" to="34572672" type="car_passenger"/>
    <trip id="car26" depart="19.50" from="1133268690#0" to="481398535" type="car_passenger"/>
    <trip id="car27" depart="20.25" from="1085736098#0" to="170043629" type="car_passenger"/>
    <trip id="car28" depart="21.00" from="915062445" to="384916872#0" type="car_passenger"/>
    <trip id="car29" depart="21.75" from="324061373" to="462184879" type="car_passenger"/>
    <trip id="car30" depart="22.50" from="600711846" to="503811360" type="car_passenger"/>
    <trip id="car31" depart="23.25" from="126765650" to="-15883748" type="car_passenger"/>
    <trip id="car32" depart="24.00" from="170000686#0" to="1133257418" type="car_passenger"/>
    <trip id="car33" depart="24.75" from="1219592420" to="689753983" type="car_passenger"/>
    <trip id="car34" depart="25.50" from="625093160#0" to="1327330689" type="car_passenger"/>
    <trip id="car35" depart="26.25" from="463177310#0" to="171722297" type="car_passenger"/>
    <trip id="car36" depart="27.00" from="759168046" to="263228458#0" type="car_passenger"/>
    <trip id="car37" depart="27.75" from="1322111544" to="1085736096" type="car_passenger"/>
    <trip id="car38" depart="28.50" from="324227718" to="1088265904" type="car_passenger"/>
    <trip id="car39" depart="29.25" from="34942578" to="623631177" type="car_passenger"/>
    <trip id="car40" depart="30.00" from="20306526" to="-759336243#0" type="car_passenger"/>
    <trip id="car41" depart="30.75" from="952945082#0" to="288069930" type="car_passenger"/>
    <trip id="car42" depart="31.50" from="-296896088#1" to="-170104259" type="car_passenger"/>
    <trip id="car43" depart="32.25" from="-464551516" to="35967847" type="car_passenger"/>
    <trip id="car44" depart="33.00" from="59552742" to="235997637" type="car_passenger"/>
    <trip id="car45" depart="33.75" from="-27533472" to="170043645" type="car_passenger"/>
    <trip id="car46" depart="34.50" from="952945080#1" to="296659363#0" type="car_passenger"/>
    <trip id="car47" depart="35.25" from="894039050" to="59556906#2" type="car_passenger"/>
    <trip id="car48" depart="36.00" from="-1257170577#1" to="481398535" type="car_passenger"/>
    <trip id="car49" depart="36.75" from="485955798" to="296896087#0" type="car_passenger"/>
    <trip id="car50" depart="37.50" from="1327330690" to="384916877" type="car_passenger"/>
    <trip id="car51" depart="38.25" from="-481230968#1" to="235997648#0" type="car_passenger"/>
    <trip id="car52" depart="39.00" from="625093160#0" to="1091525590" type="car_passenger"/>
    <trip id="car53" depart="39.75" from="296896088#1" to="-548883610" type="car_passenger"/>
    <trip id="car54" depart="40.50" from="725380349#0" to="598944885#3" type="car_passenger"/>
    <trip id="car55" depart="41.25" from="1492230041" to="375667879" type="car_passenger"/>
    <trip id="car56" depart="42.00" from="385208720" to="-481230968#1" type="car_passenger"/>
    <trip id="car57" depart="42.75" from="552840035" to="296896088#2" type="car_passenger"/>
    <trip id="car58" depart="43.50" from="587486413" to="296659364" type="car_passenger"/>
    <trip id="car59" depart="44.25" from="-1011477960" to="1432084980#0" type="car_passenger"/>
    <trip id="car60" depart="45.00" from="-16610261" to="689753983" type="car_passenger"/>
    <trip id="car61" depart="45.75" from="625093160#0" to="552840022#0" type="car_passenger"/>
    <trip id="car62" depart="46.50" from="16064694#1" to="-24301478" type="car_passenger"/>
    <trip id="car63" depart="47.25" from="625093160#0" to="725380349#0" type="car_passenger"/>
    <trip id="car64" depart="48.00" from="-296659365" to="277760674" type="car_passenger"/>
    <trip id="car65" depart="48.75" from="573201244" to="-35967842" type="car_passenger"/>
    <trip id="car66" depart="49.50" from="289800579" to="299376586#0" type="car_passenger"/>
    <trip id="car67" depart="50.25" from="1322111544" to="599334734" type="car_passenger"/>
    <trip id="car68" depart="51.00" from="24305505" to="-759336243#0" type="car_passenger"/>
    <trip id="car69" depart="51.75" from="32266091" to="481398535" type="car_passenger"/>
    <trip id="car70" depart="52.50" from="1181724795" to="1306184529" type="car_passenger"/>
    <trip id="car71" depart="53.25" from="943536785" to="410658513" type="car_passenger"/>
    <trip id="car72" depart="54.00" from="264863287#1" to="292058174" type="car_passenger"/>
    <trip id="car73" depart="54.75" from="-548875276#2" to="-759336243#0" type="car_passenger"/>
    <trip id="car74" depart="55.50" from="170043664#0" to="324061356#0" type="car_passenger"/>
    <trip id="car75" depart="56.25" from="126765650" to="-759336243#0" type="car_passenger"/>
    <trip id="car76" depart="57.00" from="-288179988#2" to="360177728" type="car_passenger"/>
    <trip id="car77" depart="57.75" from="126765650" to="627027224" type="car_passenger"/>
    <trip id="car78" depart="58.50" from="623631173" to="-24741755" type="car_passenger"/>
    <trip id="car79" depart="59.25" from="126765650" to="455480607#5" type="car_passenger"/>
    <trip id="car80" depart="60.00" from="1233530733" to="-37546390" type="car_passenger"/>
    <trip id="car81" depart="60.75" from="772272442" to="31563956" type="car_passenger"/>
    <trip id="car82" depart="61.50" from="288179987" to="503811360" type="car_passenger"/>
    <trip id="car83" depart="62.25" from="59556907#0" to="-60616242" type="car_passenger"/>
    <trip id="car84" depart="63.00" from="-330596253" to="235997648#0" type="car_passenger"/>
    <trip id="car85" depart="63.75" from="24305505" to="27056407#0" type="car_passenger"/>
    <trip id="car86" depart="64.50" from="50219639#0" to="456678644#1" type="car_passenger"/>
    <trip id="car87" depart="65.25" from="894039050" to="-296659370" type="car_passenger"/>
    <trip id="car88" depart="66.00" from="207233934#3" to="16064694#1" type="car_passenger"/>
    <trip id="car89" depart="66.75" from="625060015" to="1088265904" type="car_passenger"/>
    <trip id="car90" depart="67.50" from="1147450680" to="24301663" type="car_passenger"/>
    <trip id="car91" depart="68.25" from="24301663" to="115891667#0" type="car_passenger"/>
    <trip id="car92" depart="69.00" from="129915065" to="687050509" type="car_passenger"/>
    <trip id="car93" depart="69.75" from="27056409" to="59556906#3" type="car_passenger"/>
    <trip id="car94" depart="70.50" from="324061352" to="-187285144#1" type="car_passenger"/>
    <trip id="car95" depart="71.25" from="95842194#1" to="552840037#0" type="car_passenger"/>
    <trip id="car96" depart="72.00" from="84596611" to="687050509" type="car_passenger"/>
    <trip id="car97" depart="72.75" from="60616212#2" to="-50219635" type="car_passenger"/>
    <trip id="car98" depart="73.50" from="293201850" to="-759336243#0" type="car_passenger"/>
    <trip id="car99" depart="74.25" from="20306606" to="-24741755" type="car_passenger"/>
    <trip id="car100" depart="75.00" from="183184922" to="835805765" type="car_passenger"/>
    <trip id="car101" depart="75.75" from="1322111544" to="503811360" type="car_passenger"/>
    <trip id="car102" depart="76.50" from="27056409" to="235997648#0" type="car_passenger"/>
    <trip id="car103" depart="77.25" from="7988529" to="951416009" type="car_passenger"/>
    <trip id="car104" depart="78.00" from="324061371#0" to="481398535" type="car_passenger"/>
    <trip id="car105" depart="78.75" from="1082922727" to="1245089840#0" type="car_passenger"/>
    <trip id="car106" depart="79.50" from="835805765" to="322572316#0" type="car_passenger"/>
    <trip id="car107" depart="80.25" from="32266091" to="49681044" type="car_passenger"/>
    <trip id="car108" depart="81.00" from="-24741556" to="324046001" type="car_passenger"/>
    <trip id="car109" depart="81.75" from="301044212" to="58722665" type="car_passenger"/>
    <trip id="car110" depart="82.50" from="1084897571#2" to="772272443" type="car_passenger"/>
    <trip id="car111" depart="83.25" from="-293201850" to="-600711856" type="car_passenger"/>
    <trip id="car112" depart="84.00" from="359888871" to="456678982#0" type="car_passenger"/>
    <trip id="car113" depart="84.75" from="126765650" to="-329388956" type="car_passenger"/>
    <trip id="car114" depart="85.50" from="660881710#0" to="1085736096" type="car_passenger"/>
    <trip id="car115" depart="86.25" from="35967848#0" to="34942579" type="car_passenger"/>
    <trip id="car116" depart="87.00" from="24301465#0" to="324045999#0" type="car_passenger"/>
    <trip id="car117" depart="87.75" from="319285808#0" to="689753983" type="car_passenger"/>
    <trip id="car118" depart="88.50" from="1206485915" to="481230982#0" type="car_passenger"/>
    <trip id="car119" depart="89.25" from="126765650" to="171722297" type="car_passenger"/>
    <trip id="car120" depart="90.00" from="481398528" to="126612905" type="car_passenger"/>
    <trip id="car121" depart="90.75" from="170000687" to="498595603" type="car_passenger"/>
    <trip id="car122" depart="91.50" from="-292058174" to="263228457#0" type="car_passenger"/>
    <trip id="car123" depart="92.25" from="95842194#0" to="951416009" type="car_passenger"/>
    <trip id="car124" depart="93.00" from="-292058175" to="-759336243#0" type="car_passenger"/>
    <trip id="car125" depart="93.75" from="1322111544" to="689753983" type="car_passenger"/>
    <trip id="car126" depart="94.50" from="625093160#3" to="600711841" type="car_passenger"/>
    <trip id="car127" depart="95.25" from="183184922" to="-49681113" type="car_passenger"/>
    <trip id="car128" depart="96.00" from="599334729" to="464551510#0" type="car_passenger"/>
    <trip id="car129" depart="96.75" from="410658492" to="915062437#0" type="car_passenger"/>
    <trip id="car130" depart="97.50" from="463177309" to="-1133370808" type="car_passenger"/>
    <trip id="car131" depart="98.25" from="59556908#0" to="1257170577#1" type="car_passenger"/>
    <trip id="car132" depart="99.00" from="464556600" to="689753983" type="car_passenger"/>
    <trip id="car133" depart="99.75" from="-60616212#3" to="-329388956" type="car_passenger"/>
    <trip id="car134" depart="100.50" from="-456678637#2" to="299376586#0" type="car_passenger"/>
    <trip id="car135" depart="101.25" from="1365930983" to="33290236" type="car_passenger"/>
    <trip id="car136" depart="102.00" from="50219635" to="-660881710#1" type="car_passenger"/>
    <trip id="car137" depart="102.75" from="447597734#0" to="1091525591" type="car_passenger"/>
    <trip id="car138" depart="103.50" from="296659356" to="627027224" type="car_passenger"/>
    <trip id="car139" depart="104.25" from="603634858" to="-294796354" type="car_passenger"/>
    <trip id="car140" depart="105.00" from="24305505" to="115868477" type="car_passenger"/>
    <trip id="car141" depart="105.75" from="455480607#5" to="1088265904" type="car_passenger"/>
    <trip id="car142" depart="106.50" from="54357166" to="299376586#0" type="car_passenger"/>
    <trip id="car143" depart="107.25" from="-292058179#1" to="603634858" type="car_passenger"/>
    <trip id="car144" depart="108.00" from="660881710#0" to="299376586#0" type="car_passenger"/>
    <trip id="car145" depart="108.75" from="599334734" to="324045992#0" type="car_passenger"/>
    <trip id="car146" depart="109.50" from="1001157893#1" to="-35967841" type="car_passenger"/>
    <trip id="car147" depart="110.25" from="161324505#0" to="625060015" type="car_passenger"/>
    <trip id="car148" depart="111.00" from="59552742" to="59556906#2" type="car_passenger"/>
    <trip id="car149" depart="111.75" from="660881710#0" to="-759168043" type="car_passenger"/>
    <trip id="car150" depart="112.50" from="129915065" to="-296896088#2" type="car_passenger"/>
    <trip id="car151" depart="113.25" from="587486413" to="603634859" type="car_passenger"/>
    <trip id="car152" depart="114.00" from="220813799#0" to="35049499#0" type="car_passenger"/>
    <trip id="car153" depart="114.75" from="1079580311" to="689753983" type="car_passenger"/>
    <trip id="car154" depart="115.50" from="625093160#0" to="7988531" type="car_passenger"/>
    <trip id="car155" depart="116.25" from="59556908#0" to="600711850" type="car_passenger"/>
    <trip id="car156" depart="117.00" from="-170000695#1" to="485955803" type="car_passenger"/>
    <trip id="car157" depart="117.75" from="170043625#0" to="689753983" type="car_passenger"/>
    <trip id="car158" depart="118.50" from="59552742" to="59716282" type="car_passenger"/>
    <trip id="car159" depart="119.25" from="59556908#0" to="1103880810" type="car_passenger"/>
    <trip id="car160" depart="120.00" from="59552711" to="-329388956" type="car_passenger"/>
    <trip id="car161" depart="120.75" from="625093160#0" to="59556906#0" type="car_passenger"/>
    <trip id="car162" depart="121.50" from="126765639#0" to="548862172" type="car_passenger"/>
    <trip id="car163" depart="122.25" from="27533472" to="126765651#0" type="car_passenger"/>
    <trip id="car164" depart="123.00" from="59552742" to="-7988548" type="car_passenger"/>
    <trip id="car165" depart="123.75" from="-170000693" to="-660881710#1" type="car_passenger"/>
    <trip id="car166" depart="124.50" from="170019201" to="59716282" type="car_passenger"/>
    <trip id="car167" depart="125.25" from="8109759" to="1162775046" type="car_passenger"/>
    <trip id="car168" depart="126.00" from="456678644#1" to="187285126" type="car_passenger"/>
    <trip id="car169" depart="126.75" from="894039050" to="296896077#1" type="car_passenger"/>
    <trip id="car170" depart="127.50" from="796275450" to="-329388956" type="car_passenger"/>
    <trip id="car171" depart="128.25" from="894039050" to="-548883610" type="car_passenger"/>
    <trip id="car172" depart="129.00" from="7988642#1" to="1103880808#0" type="car_passenger"/>
    <trip id="car173" depart="129.75" from="-463074434#1" to="235997648#0" type="car_passenger"/>
    <trip id="car174" depart="130.50" from="50219639#0" to="1322111544" type="car_passenger"/>
    <trip id="car175" depart="131.25" from="380858686" to="288179985#0" type="car_passenger"/>
    <trip id="car176" depart="132.00" from="183192595#0" to="319285808#2" type="car_passenger"/>
    <trip id="car177" depart="132.75" from="129915065" to="464556600" type="car_passenger"/>
    <trip id="car178" depart="133.50" from="-1015089615" to="687050509" type="car_passenger"/>
    <trip id="car179" depart="134.25" from="32266091" to="481398535" type="car_passenger"/>
    <trip id="car180" depart="135.00" from="54357166" to="456678634#0" type="car_passenger"/>
    <trip id="car181" depart="135.75" from="171202437#0" to="-24741755" type="car_passenger"/>
    <trip id="car182" depart="136.50" from="464556601" to="1492229431#0" type="car_passenger"/>
    <trip id="car183" depart="137.25" from="170000680" to="58722665" type="car_passenger"/>
    <trip id="car184" depart="138.00" from="50219635" to="126612905" type="car_passenger"/>
    <trip id="car185" depart="138.75" from="16610261" to="202078190" type="car_passenger"/>
    <trip id="car186" depart="139.50" from="207233934#3" to="1233530732" type="car_passenger"/>
    <trip id="car187" depart="140.25" from="-557465797" to="222031054#0" type="car_passenger"/>
    <trip id="car188" depart="141.00" from="796275450" to="457333537#0" type="car_passenger"/>
    <trip id="car189" depart="141.75" from="660881710#0" to="34846200" type="car_passenger"/>
    <trip id="car190" depart="142.50" from="-1011477960" to="1206485920" type="car_passenger"/>
    <trip id="car191" depart="143.25" from="262231193#0" to="32266118#0" type="car_passenger"/>
    <trip id="car192" depart="144.00" from="463177310#0" to="26539742" type="car_passenger"/>
    <trip id="car193" depart="144.75" from="27056409" to="-759336243#0" type="car_passenger"/>
    <trip id="car194" depart="145.50" from="59552742" to="-50219635" type="car_passenger"/>
    <trip id="car195" depart="146.25" from="-296659364" to="291749682" type="car_passenger"/>
    <trip id="car196" depart="147.00" from="445757872" to="15238105#0" type="car_passenger"/>
    <trip id="car197" depart="147.75" from="59556908#0" to="49681114#0" type="car_passenger"/>
    <trip id="car198" depart="148.50" from="482241562" to="-759336243#0" type="car_passenger"/>
    <trip id="car199" depart="149.25" from="1168961266" to="-129915065" type="car_passenger"/>
    <trip id="car200" depart="150.00" from="129915058#0" to="27056413" type="car_passenger"/>
    <trip id="car201" depart="150.75" from="60616212#3" to="-24741755" type="car_passenger"/>
    <trip id="car202" depart="151.50" from="240381591#0" to="359888873#0" type="car_passenger"/>
    <trip id="car203" depart="152.25" from="115891666#0" to="462184879" type="car_passenger"/>
    <trip id="car204" depart="153.00" from="296659367" to="1084897573#1" type="car_passenger"/>
    <trip id="car205" depart="153.75" from="464551508#0" to="-1091525591" type="car_passenger"/>
    <trip id="car206" depart="154.50" from="-456678637#2" to="235997648#0" type="car_passenger"/>
    <trip id="car207" depart="155.25" from="1133911657" to="772272443" type="car_passenger"/>
    <trip id="car208" depart="156.00" from="31563956" to="-171721790#1" type="car_passenger"/>
    <trip id="car209" depart="156.75" from="129915065" to="58722665" type="car_passenger"/>
    <trip id="car210" depart="157.50" from="27056409" to="541347665#0" type="car_passenger"/>
    <trip id="car211" depart="158.25" from="481230968#0" to="915062437#1" type="car_passenger"/>
    <trip id="car212" depart="159.00" from="359888873#0" to="759336243#1" type="car_passenger"/>
    <trip id="car213" depart="159.75" from="660881710#0" to="34800654" type="car_passenger"/>
    <trip id="car214" depart="160.50" from="50219635" to="280989225#0" type="car_passenger"/>
    <trip id="car215" depart="161.25" from="598944885#0" to="299376586#0" type="car_passenger"/>
    <trip id="car216" depart="162.00" from="660881710#0" to="489635623#0" type="car_passenger"/>
    <trip id="car217" depart="162.75" from="288231840" to="1088265904" type="car_passenger"/>
    <trip id="car218" depart="163.50" from="129915065" to="374287480#0" type="car_passenger"/>
    <trip id="car219" depart="164.25" from="573201244" to="292058181" type="car_passenger"/>
    <trip id="car220" depart="165.00" from="411047573" to="1156986394" type="car_passenger"/>
    <trip id="car221" depart="165.75" from="-292058182" to="1206485900" type="car_passenger"/>
    <trip id="car222" depart="166.50" from="1365930983" to="1354366253#1" type="car_passenger"/>
    <trip id="car223" depart="167.25" from="32266091" to="-37546390" type="car_passenger"/>
    <trip id="car224" depart="168.00" from="126765650" to="462184879" type="car_passenger"/>
    <trip id="car225" depart="168.75" from="49681113" to="-24741755" type="car_passenger"/>
    <trip id="car226" depart="169.50" from="220813799#1" to="299376586#0" type="car_passenger"/>
    <trip id="car227" depart="170.25" from="240381591#1" to="-660881710#1" type="car_passenger"/>
    <trip id="car228" depart="171.00" from="24301497#0" to="627027218#1" type="car_passenger"/>
    <trip id="car229" depart="171.75" from="34879397" to="462184879" type="car_passenger"/>
    <trip id="car230" depart="172.50" from="183184922" to="-1091525591" type="car_passenger"/>
    <trip id="car231" depart="173.25" from="170212982" to="50219615" type="car_passenger"/>
    <trip id="car232" depart="174.00" from="24301385" to="49681042#0" type="car_passenger"/>
    <trip id="car233" depart="174.75" from="324045992#0" to="33183112#0" type="car_passenger"/>
    <trip id="car234" depart="175.50" from="126612909" to="-759336243#0" type="car_passenger"/>
    <trip id="car235" depart="176.25" from="264534309#0" to="-129915065" type="car_passenger"/>
    <trip id="car236" depart="177.00" from="170043645" to="459668281#0" type="car_passenger"/>
    <trip id="car237" depart="177.75" from="212796643" to="-50219635" type="car_passenger"/>
    <trip id="car238" depart="178.50" from="288069912" to="-35967841" type="car_passenger"/>
    <trip id="car239" depart="179.25" from="411029244" to="-129915065" type="car_passenger"/>
    <trip id="car240" depart="180.00" from="202076596#0" to="311740485" type="car_passenger"/>
    <trip id="car241" depart="180.75" from="-170019196" to="385208728" type="car_passenger"/>
    <trip id="car242" depart="181.50" from="-60616242" to="264534309#0" type="car_passenger"/>
    <trip id="car243" depart="182.25" from="-24741556" to="170043627" type="car_passenger"/>
    <trip id="car244" depart="183.00" from="552840033#0" to="170043627" type="car_passenger"/>
    <trip id="car245" depart="183.75" from="548883609" to="552840023#0" type="car_passenger"/>
    <trip id="car246" depart="184.50" from="129915065" to="-288179987" type="car_passenger"/>
    <trip id="car247" depart="185.25" from="-16610261" to="296896088#2" type="car_passenger"/>
    <trip id="car248" depart="186.00" from="95842194#1" to="170000691#0" type="car_passenger"/>
    <trip id="car249" depart="186.75" from="460847239#0" to="503811360" type="car_passenger"/>
    <trip id="car250" depart="187.50" from="463074433" to="50219616#0" type="car_passenger"/>
    <trip id="car251" depart="188.25" from="796275450" to="-660881710#1" type="car_passenger"/>
    <trip id="car252" depart="189.00" from="-170000679" to="-481230968#1" type="car_passenger"/>
    <trip id="car253" depart="189.75" from="-551455122" to="455480607#5" type="car_passenger"/>
    <trip id="car254" depart="190.50" from="328773701#0" to="-759336243#0" type="car_passenger"/>
    <trip id="car255" depart="191.25" from="1133257417" to="334864581#0" type="car_passenger"/>
    <trip id="car256" depart="192.00" from="548862185" to="-329388956" type="car_passenger"/>
    <trip id="car257" depart="192.75" from="59556908#0" to="772272443" type="car_passenger"/>
    <trip id="car258" depart="193.50" from="-463074433" to="-129915065" type="car_passenger"/>
    <trip id="car259" depart="194.25" from="170000678" to="457333537#0" type="car_passenger"/>
    <trip id="car260" depart="195.00" from="7988530" to="183184921" type="car_passenger"/>
    <trip id="car261" depart="195.75" from="50219635" to="-27533472" type="car_passenger"/>
    <trip id="car262" depart="196.50" from="485955800" to="35967847" type="car_passenger"/>
    <trip id="car263" depart="197.25" from="60616213" to="32908559" type="car_passenger"/>
    <trip id="car264" depart="198.00" from="-548875276#2" to="8109759" type="car_passenger"/>
    <trip id="car265" depart="198.75" from="587486413" to="170000687" type="car_passenger"/>
    <trip id="car266" depart="199.50" from="25925545" to="170019204" type="car_passenger"/>
    <trip id="car267" depart="200.25" from="307214695#1" to="16923057#0" type="car_passenger"/>
    <trip id="car268" depart="201.00" from="60616212#3" to="548875280" type="car_passenger"/>
    <trip id="car269" depart="201.75" from="-422097018" to="772272443" type="car_passenger"/>
    <trip id="car270" depart="202.50" from="455480606" to="549969116" type="car_passenger"/>
    <trip id="car271" depart="203.25" from="49681114#0" to="235997648#0" type="car_passenger"/>
    <trip id="car272" depart="204.00" from="51138782#0" to="772272443" type="car_passenger"/>
    <trip id="car273" depart="204.75" from="1354366162#1" to="541347665#0" type="car_passenger"/>
    <trip id="car274" depart="205.50" from="32266091" to="27533468#0" type="car_passenger"/>
    <trip id="car275" depart="206.25" from="264534309#0" to="481398535" type="car_passenger"/>
    <trip id="car276" depart="207.00" from="133325791#0" to="58722665" type="car_passenger"/>
    <trip id="car277" depart="207.75" from="598944885#0" to="-292058179#1" type="car_passenger"/>
    <trip id="car278" depart="208.50" from="625093160#4" to="1084897572#1" type="car_passenger"/>
    <trip id="car279" depart="209.25" from="280323996" to="34572676" type="car_passenger"/>
    <trip id="car280" depart="210.00" from="183184922" to="-129915065" type="car_passenger"/>
    <trip id="car281" depart="210.75" from="60616213" to="-551455122" type="car_passenger"/>
    <trip id="car282" depart="211.50" from="122108659" to="538081341#0" type="car_passenger"/>
    <trip id="car283" depart="212.25" from="170104260" to="600711846" type="car_passenger"/>
    <trip id="car284" depart="213.00" from="489635664" to="115868477" type="car_passenger"/>
    <trip id="car285" depart="213.75" from="-1206485921" to="753573639" type="car_passenger"/>
    <trip id="car286" depart="214.50" from="-296659365" to="481398535" type="car_passenger"/>
    <trip id="car287" depart="215.25" from="296659356" to="50219642#0" type="car_passenger"/>
    <trip id="car288" depart="216.00" from="485955800" to="410658493" type="car_passenger"/>
    <trip id="car289" depart="216.75" from="296659363#0" to="51138784" type="car_passenger"/>
    <trip id="car290" depart="217.50" from="-31563951#0" to="-759336243#0" type="car_passenger"/>
    <trip id="car291" depart="218.25" from="485955803" to="126775448#0" type="car_passenger"/>
    <trip id="car292" depart="219.00" from="34846200" to="27056413" type="car_passenger"/>
    <trip id="car293" depart="219.75" from="32266091" to="235997648#0" type="car_passenger"/>
    <trip id="car294" depart="220.50" from="548862182#0" to="1492230041" type="car_passenger"/>
    <trip id="car295" depart="221.25" from="49681042#0" to="1144471410" type="car_passenger"/>
    <trip id="car296" depart="222.00" from="129915065" to="-329388956" type="car_passenger"/>
    <trip id="car297" depart="222.75" from="1156986397" to="-329388956" type="car_passenger"/>
    <trip id="car298" depart="223.50" from="1133911657" to="-759336243#0" type="car_passenger"/>
    <trip id="car299" depart="224.25" from="292058187#0" to="481398535" type="car_passenger"/>
    <trip id="car300" depart="225.00" from="894039050" to="293201850" type="car_passenger"/>
    <trip id="car301" depart="225.75" from="143841588" to="-296896087#2" type="car_passenger"/>
    <trip id="car302" depart="226.50" from="115891666#0" to="-7988548" type="car_passenger"/>
    <trip id="car303" depart="227.25" from="1133911657" to="-129915058#1" type="car_passenger"/>
    <trip id="car304" depart="228.00" from="32266091" to="1147450681" type="car_passenger"/>
    <trip id="car305" depart="228.75" from="894039050" to="299376586#0" type="car_passenger"/>
    <trip id="car306" depart="229.50" from="489635604#0" to="-34942579" type="car_passenger"/>
    <trip id="car307" depart="230.25" from="625093160#0" to="27796190" type="car_passenger"/>
    <trip id="car308" depart="231.00" from="625093160#0" to="31563961" type="car_passenger"/>
    <trip id="car309" depart="231.75" from="288069928" to="240381587#1" type="car_passenger"/>
    <trip id="car310" depart="232.50" from="1133911657" to="-191115836" type="car_passenger"/>
    <trip id="car311" depart="233.25" from="796275450" to="27056413" type="car_passenger"/>