<?xml version="1.0" encoding="UTF-8"?>

<!-- generated on 2026-03-29 18:57:24.542842 by Eclipse SUMO randomTrips.py v1_26_0+0000-fa7df22d7f1
<configuration>
    <net-file value="osm.net.xml.gz"/>
    <output-trip-file value="osm.bus.trips.xml"/>
    <route-file value="osm.bus.rou.xml"/>
    <prefix value="bus"/>
    <vehicle-class value="bus"/>
    <fringe-factor value="20"/>
    <end value="10800.0"/>
    <period value="15.0"/>
</configuration>
-->

<!-- generated on 2026-03-29T18:57:24.418559+07:00 by Eclipse SUMO duarouter 1.26.0
<duarouterConfiguration xmlns:xsi="http://www.w3.org/2001/XMLSchema-instance" xsi:noNamespaceSchemaLocation="http://sumo.dlr.de/xsd/duarouterConfiguration.xsd">

    <input>
        <net-file value="osm.net.xml.gz"/>
        <route-files value="osm.bus.trips.xml"/>
    </input>

    <output>
        <output-file value="osm.bus.rou.xml"/>
        <alternatives-output value="NUL"/>
    </output>

    <time>
        <begin value="0"/>
        <end value="10800.0"/>
    </time>

    <report>
        <no-warnings value="true"/>
        <ignore-errors value="true"/>
        <no-step-log value="true"/>
    </report>

</duarouterConfiguration>
-->

<routes xmlns:xsi="http://www.w3.org/2001/XMLSchema-instance" xsi:noNamespaceSchemaLocation="http://sumo.dlr.de/xsd/routes_file.xsd">
    <vType id="bus_bus" vClass="bus"/>
    <vehicle id="bus0" type="bus_bus" depart="0.00">
        <route edges="456678637#0 481230968#0 -15391563 -481230979 15391661#0 552840033#0 455480608 552840023#0 1319143452#0 220813798#0 -129915065"/>
    </vehicle>
    <vehicle id="bus1" type="bus_bus" depart="15.00">
        <route edges="1432084980#0 1432084980#1 459668281#0 459668282#0 1101028767 60616232 366806250 1133257418 1354366253#1 1354366162#1 59716282 915062445 1233530733 915062449 288179985#0 296659356 296659359 187285126 296659364 482241562 296659367 296659363#0 33183107 170000691#0 35967848#0 170000688 35967845#0 -170000686#1 -263228460 -170000695#1 -296659365 -288179987 -171721790#1 296659368#0 170000694 292058182 292058180 292058178 292058174 292058186#0 292058188#0 294796354 292058179#0 170000687 292058172 170000693 171722297 170019197 170019194#0 -171202437#1 -16064694#1 -16064694#0 -759336243#0"/>
    </vehicle>
    <vehicle id="bus2" type="bus_bus" depart="30.00">
        <route edges="51850996 -548883610 -202087356#1 202087356#1 548883610 24305364 51850882 170019195 170019196 170019199 292058177 8109759 7988485 170019201 759168046 170019200 292058181 170019198 -170019194#2 -170019197 -292058175 -170000693 -292058172 -170000687 -292058179#1 -294796354 -292058188#1 -292058186#3 -292058174 -50219613 -292058180 -292058182 170000684 292058187#0 171721790#0 288179987 296659365 170000695#0 263228460 170000686#0 296659366#0 170000689#0 35967847 170043627 687445680 33183112#0 -296659367 -482241562 -296659364 -480882204#1 -296659359 -296659360 -288179985#1 -296659361#1 -296659357 -129915058#1 -220813798#2 170043625#0 552840021#0 455480606 220813799#0 220813799#1 1031465512#1 37337287#0 51138782#0 51138782#2 457333537#0"/>
    </vehicle>
    <vehicle id="bus3" type="bus_bus" depart="45.00">
        <route edges="660881710#0 202087356#0 202087356#1 548883610 24305364 51850882 170019195 170019196 170019199 292058177 8109759 7988485 170019201 759168046 170019200 292058181 170019198 -170019194#2 -170019197 -292058175 -170000693 -292058172 -170000687 -292058179#1"/>
    </vehicle>
    <vehicle id="bus4" type="bus_bus" depart="60.00">
        <route edges="24301663 25925545 220798338 311740485 418580600 34865692#0 410658512 623631177 410658498 498595603 411029243#0 411029248#0 411047570 411029240#0 288069907#0 550427733 288069928 288069930 551455119 402511017 288069924 7988548 441733751 1011477960 35967842 296659375 288179988#0 296659366#0 170000689#0 35967847 170043627 687445680 33183112#0 -296659367 -482241562 -296659364 -480882204#1 -296659359 -296659360 -288179985#1 -296659361#1 -296659357 -129915058#1 -129915065"/>
    </vehicle>
    <vehicle id="bus5" type="bus_bus" depart="75.00">
        <route edges="126612905 170000707 50219616#0 292058188#0 294796354 263228472#0 599485294 50219615 -50219615 -15883748 -598957760 -170000680 -170000679 -481398528 -202109189 -293201850 -202087877 -481398522 -286707429#2 286707429#2"/>
    </vehicle>
    <vehicle id="bus6" type="bus_bus" depart="90.00">
        <route edges="-170019196 -170019195 -759168043 8109805 51850996 -548883610 -202087356#1 -202087356#0 -660881710#1"/>
    </vehicle>
    <vehicle id="bus7" type="bus_bus" depart="105.00">
        <route edges="460847239#0 328773701#0 548862185 548862184#0 548862179 227348517#0 619706215 1079580311 1156986397 280989225#0 485955801 485955800 485955799#0 485955804#0 485955803 59556907#0 1082922727 161324505#0 59556906#2 59556906#3 299376586#0"/>
    </vehicle>
    <vehicle id="bus8" type="bus_bus" depart="120.00">
        <route edges="126612909 277760675 126612908#0 126612908#1 60616242 277760674 60616213 324227713 115868477 324227723 -984815384#1 538081341#0 1133268689 324227718 1133268690#0 788233285 1225049792#0 720100187#0 301044212 324227714 60616227#0 324061359#1 324061358"/>
    </vehicle>
    <vehicle id="bus9" type="bus_bus" depart="135.00">
        <route edges="59556908#0 625093157#0 262231193#0 17097296 34800660#2 288231838#0 548862183 548862182#0 351425727 696236568#0 460847281 548862172 696236572 328773702#0 725380348#0 1208077748#0 240381587#1 725380349#0 457333537#0 470079882 51138784 32266148 791153426 1168961271 791153428 324045990#0 324227716#0 59716284#0 538081338 324227715#0 -538081341#4 49681114#0 -1133257414#1 -115868477 -1133257413"/>
    </vehicle>
    <vehicle id="bus10" type="bus_bus" depart="150.00">
        <route edges="170104260 -600711846 -600711841 -170104259 -133325791#1 133325791#0 170104259 600711841 600711846 -170104260 -600711850 -1133370808 -600711856 -34942579 -34942578 -191115836 -660887508 -623882619 -548883608 943536782 943527225 51850882 170019195 170019196 170019199 292058177 8109759 7988485 170019201 759168046 170019200 292058181 170019198 -170019194#2 -170019197 -292058175 -170000693 -292058172 7988696#0 599485294 50219615 481398535 -481398535"/>
    </vehicle>
    <vehicle id="bus11" type="bus_bus" depart="165.00">
        <route edges="7988529 170019205 170019214 170019200 292058181 170019198 -170019194#2 -170019197 -292058175 -170000693 -292058172 -170000687 -292058179#1 -294796354 -292058188#1 -292058186#3 -292058174 -50219613 -292058180 -292058182 170000684 292058187#0 171721790#0 288179987 296659365 170000695#0 263228460 170000686#0 296659366#0 170000689#0 35967847 170043627 687445680 33183112#0 -296659367 -482241562 -296659364 -480882204#1 -296659359 -296659360 -288179985#1 -463074434#1 -463074433 -640252587 -108355626#1 -108355626#0 16923057#0 16923057#1 16923057#2 481230982#0 -15391563 -481230979 15391661#0"/>
    </vehicle>
    <vehicle id="bus12" type="bus_bus" depart="180.00">
        <route edges="-315630017#1 20306526 171202438#0 20306550 31563959 34800652 35967841 288069924 7988548 441733751 1011477960 35967842 296659375 34234092 -263228460 -170000695#1 -296659365"/>
    </vehicle>
    <vehicle id="bus13" type="bus_bus" depart="195.00">
        <route edges="60616212#0 -60616212#0 -187285144#1 187285126 296659364 482241562 296659367 296659363#0 33183107 170000691#0 35967847 170043627 687445680 33183112#0"/>
    </vehicle>
    <vehicle id="bus14" type="bus_bus" depart="210.00">
        <route edges="59556907#0 1082922727 161324505#0 311254910#1 311254910#2 548875282 151726509 27533472 291749682 1257170577#1 548875276#0 17097296 34800660#2 288231838#0 1156986394 201007773#0 52955389#0 34572878#0 126765639#0 59546341#0 727250790 126765648#0 32790772#0 235997652#0 30853950#0 30853950#2 30853950#3 30853950#4 1084897572#1 1084897573#1 1084897573#2 1084897573#4 24301663 25925545 220798338 311740485 418580600 34865692#0 1212627953#0 1212627953#1 1212627952 312722382 24301465#0 170104289#0 315630014 315630016#0 315630016#3 1206485900 286707429#2 251290686 481398525 293201850 202109189 481398528 170000679 170000680 170000678 598957761 50219615 481398535"/>
    </vehicle>
    <vehicle id="bus15" type="bus_bus" depart="225.00">
        <route edges="32266091 307214695#0 307214695#1 1085736098#0 1085736096 50219642#0 54267810 84596611 1432084980#0 1432084980#1 459668281#0 459668282#0 1101028767 60616232 366806250 1133257418 1354366253#1 1354366162#1 59716282 915062445 1233530733 915062449 -463074434#1 -463074433 -640252587 -108355626#1 -108355626#0 7988469"/>
    </vehicle>
    <vehicle id="bus16" type="bus_bus" depart="240.00">
        <route edges="183184922 1245089847 1327330690 183184925#0 1365930983 183184921 548875280 27533468#0 289800579 59556906#0 59556906#1 59556906#2 59556906#3 299376586#0"/>
    </vehicle>
    <vehicle id="bus17" type="bus_bus" depart="255.00">
        <route edges="598944884#0 1084897573#4 24301663 25925545 220798338 311740485 418580600 34865692#0 1212627953#0 1212627953#1 1212627952 312722382 34800657#0 288069912 170104265 953791874 170104258 34572676 170104263#0 133325791#0 170104259 600711841 600711846 -170104260 -600711850 -1133370808 -600711856 -34942579 -34942578 34942578"/>
    </vehicle>
    <vehicle id="bus18" type="bus_bus" depart="270.00">
        <route edges="625060015 151724336 170043629 170043635 456678647 170043644#0 552840021#0 455480606 220813799#0 220813799#1 1031465512#1 37337287#0 51138782#0 51138782#2 1168961266 319285808#0 319285808#1 319285808#2 319285808#3"/>
    </vehicle>
    <vehicle id="bus19" type="bus_bus" depart="285.00">
        <route edges="49681045 170213368 170213369 599334734 599334729 599334746 599334747 599334748 24301648 170104276 410658496 360177728 360177727#0 375667879 411029238#0 411047570 411029240#0 288069907#0 550427733 288069928 288069930 551455119 402511017 288069924 7988548 441733751 1011477960 35967842 296659375 288179988#0 296659366#0 170000689#0 35967847 170043627 687445680 33183112#0 -296659367 -482241562 -296659364 -480882204#1 -296659359 -296659360 -288179985#1 -296659361#1 -296659357 -129915058#1 -220813798#2 170043625#0 1319143451#0 -296659370 -296659371 -170043629"/>
    </vehicle>
    <vehicle id="bus20" type="bus_bus" depart="300.00">
        <route edges="126765650 1322111544 58722670 235997637 126765651#0 301322407#0 549803494#0 59546340 655314176#0 126765636#0 34865699#0 148238504#0 183192595#0 619706215 1079580311 1156986397 280989225#0 485955801 485955800 485955799#0 -548875276#2 -1257170577#1 -1257170577#0 -27533472 26252423#0 17044541#0 59546331 207233934#3 489635602 1211205542"/>
    </vehicle>
    <vehicle id="bus21" type="bus_bus" depart="315.00">
        <route edges="-35967841 35967841 288069924 7988548 441733751 1011477960 35967842 296659375 288179988#0 296659366#0 170000689#0 35967847 170043627 687445680 49681042#0 126612909 277760675 126612908#0 126612908#1 60616242 277760674 60616213 324227713 115868477 324227723 -557465797 -1015089615 -49681113 -330596253 -1015089614 -32932489#1 115891666#0 115891666#2"/>
    </vehicle>
    <vehicle id="bus22" type="bus_bus" depart="330.00">
        <route edges="455480606 220813799#0 1133257422#1 552840022#0 1319143452#0 220813798#0 129915058#0 129915062 296659358 288179985#0 296659356 296659359 187285126 296659364 482241562 296659367 296659363#0 33183107 170000691#0 35967848#0 170000688 35967845#0 -170000686#1 -263228460 -170000695#1 -296659365 -288179987 -171721790#1 296659368#0 170000694 292058182 292058180 292058178 292058174 292058186#0 292058188#0 294796354 292058179#0 170000687 292058172 170000693 171722297 170019197 170019194#0 -170019198 -292058181 -170019200 -759168046 -170019201 -7988485 -8109759 49681102 367911372-AddedOnRampEdge 367911372 49681044 170019204"/>
    </vehicle>
    <vehicle id="bus23" type="bus_bus" depart="345.00">
        <route edges="183184922 1245089847 1327330690 183184925#0 1365930983 183184921 27533471#0 263228457#0 27533472 291749682 1257170577#1 548875276#0 17097296 34800660#2 288231838#0 1156986394 201007773#0 52955389#0 34572878#0 126765639#0 59546341#0 727250790 126765648#0 32790772#0 235997652#0 30853950#0 30853950#2 30853950#3 30853950#4 1084897572#1 1084897573#1 1084897573#2 1084897573#4 24301663 25925545 220798338 6116224 411078131 600316244 573201244 598944851 600316248 199188961 260784173 122108659 599334744 599334739 170019202 7988531 761233146 761233146-AddedOffRampEdge 280323996 -759168043"/>
    </vehicle>
    <vehicle id="bus24" type="bus_bus" depart="360.00">
        <route edges="133325790#0 753573639 34572672 20306878 689753983"/>
    </vehicle>
    <vehicle id="bus25" type="bus_bus" depart="375.00">
        <route edges="459668281#0 368759363#0 368759363#4 1432084982 32266118#0 384916877 200133745#0 549819999#0 50219638 1085736096 -296896087#2 -1091525590 -296896088#2 -296896088#1 -296896088#0 -1091525591 -16610261 -952945080#1 -952945080#0 1049075483 26935501#0 24301663 25925545 220798338 311740485 418580600 34865692#0 1212627953#0 1212627953#1 1212627952 312722382 34800657#0 288069912 170104265 953791874 170104258 34572676 133325790#0 753573639 34572672"/>
    </vehicle>
    <vehicle id="bus26" type="bus_bus" depart="390.00">
        <route edges="1133268690#0 788233285 60616232 366806250 1133257418 1354366253#1 1354366162#1 59716282 915062445 1233530733 915062449 288179985#0 296659356 296659359 187285126 296659364 482241562 296659367 296659363#0 33183107 170000691#0 35967848#0 170000688 35967845#0 -170000686#1 -263228460 -170000695#1 -296659365 -288179987 -171721790#1 296659368#0 170000694 292058182 292058180 292058178 292058174 292058186#0 292058188#0 294796354 263228472#0 599485294 50219615 481398535"/>
    </vehicle>
    <vehicle id="bus27" type="bus_bus" depart="405.00">
        <route edges="1085736098#0 1085736096 50219642#0 54267810 84596611 1432084980#0 1432084980#1 459668281#0 459668282#0 1101028767 1225049792#0 720100187#0 301044212 324227714 60616227#0 324061359#1 324061358 324061356#0 324061355#0 324061352 385208720 359888873#0 464551518#0 456678634#0 625060015 151724336 170043629"/>
    </vehicle>
    <vehicle id="bus28" type="bus_bus" depart="420.00">
        <route edges="915062445 1233530733 915062449 -463074434#1 -463074433 463074433 463074434#0 288231840 1002762812 915062442 1354365632#0 1354365632#1 915062437#0 915062437#1 1133257417 1233530732 465050365#0 793133565#0 459668283#0 368759363#0 368759363#4 1432084982 32266118#0 126775448#0 384916872#0"/>
    </vehicle>
    <vehicle id="bus29" type="bus_bus" depart="435.00">
        <route edges="324061373 1492230041 324061372#0 210015357#0 324046001 324045999#0 463177309 324046003#0 359888873#0 464551518#0 456678634#0 625060015 170043650#0 464556601 464556600 627027226 627027224 -8049704#2 462184879"/>
    </vehicle>
    <vehicle id="bus30" type="bus_bus" depart="450.00">
        <route edges="600711846 -170104260 -600711850 -1133370808 -600711856 -34942579 34942579 600711856 600711862 600711850 170104260 24301497#0 34572672 24301385 20306606 24301648 170104276 410658496 410658493 529164249 363390392 410658492 334713314 334713313#1 170104270 31857165 445757871 445757872 24901599 573201242 263063853#1 598944884#0 598944883 598944885#0 598944885#1 598944885#3 1084897571#1 1084897571#2 1084897571#3 235997651#0 15238105#0 15238105#2 126765651#0 301322407#0 549803494#0 59546340 655314176#0 126765636#0 34865699#0 148238504#0 183192595#0 619706215 1079580311 1156986397 280989225#0 485955801 485955800 485955799#0 485955804#0 485955803 59556907#0 485955805#0 503811360"/>
    </vehicle>
    <vehicle id="bus31" type="bus_bus" depart="465.00">
        <route edges="126765650 1322111544 58722670 235997637 126765651#0 301322407#0 727250790 126765648#0 32790772#0 235997652#0 30853950#0 30853950#2 30853950#3 30853950#4 1084897572#1 1084897573#1 1084897573#2 1084897573#4 24301663 25925545 220798338 311740485 418580600 34865692#0 1212627953#0 1212627953#1 1212627952 312722382 24301465#0 170104289#0 315630014 315630016#0 315630016#3 1206485900 286707429#2 251290686 481398525 293201850 202109189 481398528 170000679 170000680 170000678 598957761 50219615 -50219615 -15883748"/>
    </vehicle>
    <vehicle id="bus32" type="bus_bus" depart="480.00">
        <route edges="170000686#0 296659366#0 170000689#0 35967847 170043627 687445680 33183112#0 -296659367 -482241562 -296659364 -480882204#1 -296659359 -296659360 -288179985#1 288231840 1002762812 915062442 1354365632#0 1354365632#1 915062437#0 915062437#1 1133257418"/>
    </vehicle>
    <vehicle id="bus33" type="bus_bus" depart="495.00">
        <route edges="1219592420 1433747782 1219592419 489635604#0 201008967#0 1181724795 1147450681 1181724796#0 1147450680 1181724794 207233934#3 489635602 59546343#0 1365930983 183184921 27533471#0 263228457#0 27533472 291749682 1257170577#1 548875276#0 17097296 34800660#2 288231838#0 1156986394 201007773#0 52955389#0 34572878#0 126765639#0 59546341#0 727250790 126765648#0 32790772#0 235997652#0 30853950#0 30853950#2 30853950#3 30853950#4 1084897572#1 1084897573#1 1084897573#2 1084897573#4 24301663 25925545 220798338 311740485 418580600 34865692#0 1212627953#0 1212627953#1 1212627952 312722382 34800657#0 288069912 170104265 953791874 170104258 34572676 133325790#0 753573639 34572672 20306878 689753983"/>
    </vehicle>
    <vehicle id="bus34" type="bus_bus" depart="510.00">
        <route edges="625093160#0 625093160#2 625093160#3 625093160#4 1001157893#0 1001157893#1 487063309#0 161324505#0 311254910#1 311254910#2 548875282 487063308 17044541#0 59546331 207233934#3 489635602 1211205542 1245089840#0 1245089840#1 1327330689"/>
    </vehicle>
    <vehicle id="bus35" type="bus_bus" depart="525.00">
        <route edges="463177310#0 661035326 324045993#0 222031054#0 319285809 54357166 51138782#2 457333537#0 470079882 447597734#0 322572316#0 1103880810 129384532#0 129384532#1 1133257422#1 552840022#0 1319143452#0 220813798#0 129915058#0 129915062 296659358 288179985#0 296659356 296659359 187285126 296659364 482241562 296659367 296659363#0 33183107 170000691#0 35967848#0 170000688 35967845#0 -170000686#1 -263228460 -170000695#1 -296659365 -288179987 -171721790#1 296659368#0 170000694 292058182 292058180 292058178 292058174 292058186#0 292058188#0 294796354 292058179#0 170000687 292058172 170000693 171722297"/>
    </vehicle>
    <vehicle id="bus36" type="bus_bus" depart="540.00">
        <route edges="759168046 170019200 292058181 170019198 -170019194#2 -170019197 -292058175 -170000693 -292058172 -170000687 -292058179#1 -294796354 -292058188#1 -292058186#3 -292058174 -50219613 -292058180 -292058182 170000684 292058187#0 171721790#0 288179987 296659365 170000695#0 263228460 170000686#0 296659366#0 170000689#0 35967847 170043627 687445680 33183112#0 -296659367 -482241562 -296659364 -480882204#1 -296659359 -296659360 -288179985#1 -296659361#1 -296659357 -129915058#1 -220813798#2 170043625#0 552840021#0 455480606 220813799#0 220813799#1 1031465512#1 37337287#0 324061359#1 324061358 324061356#0 324061355#0 324061352 385208720 324061353 264534309#0 489635622 264534310 263228458#0"/>
    </vehicle>
    <vehicle id="bus37" type="bus_bus" depart="555.00">
        <route edges="1322111544 58722670 235997637 126765651#0 301322407#0 727250790 126765648#0 32790772#0 235997652#0 1085736098#0 1085736096"/>
    </vehicle>
    <vehicle id="bus38" type="bus_bus" depart="570.00">
        <route edges="324227718 538081338 324227715#0 24740515#0 464621654 464621655#0 1088265904"/>
    </vehicle>
    <vehicle id="bus39" type="bus_bus" depart="585.00">
        <route edges="34942578 34942579 600711856 600711862 600711850 170104260 24301497#0 34572672 24301385 20306606 24301648 170104276 410658496 410658493 529164249 363390392 410658492 334713314 334713313#1 170104270 31857165 445757871 445757872 24901599 573201242 24301663 25925545 220798338 311740485 418580600 34865692#0 410658512 623631177"/>
    </vehicle>
    <vehicle id="bus40" type="bus_bus" depart="600.00">
        <route edges="20306526 171202438#0 -171202438#2 458338070 315630016#3 1206485900 286707429#2 251290686 481398525 293201850 202109189 481398528 170000679 170000680 7988645 292058172 170000693 171722297 170019197 170019194#0 -171202437#1 -16064694#1 -16064694#0 -759336243#0"/>
    </vehicle>
    <vehicle id="bus41" type="bus_bus" depart="615.00">
        <route edges="952945082#0 1206485915 34800658 375667879 411029238#0 411047570 411029240#0 288069907#0 550427733 288069928 288069930"/>
    </vehicle>
    <vehicle id="bus42" type="bus_bus" depart="630.00">
        <route edges="-296896088#1 -296896088#0 -1091525591 -16610261 -952945080#1 -952945080#0 1049075483 26935501#0 24301663 25925545 220798338 311740485 418580600 34865692#0 1212627953#0 1212627953#1 1212627952 312722382 34800657#0 288069912 170104265 953791874 170104258 34572676 170104263#0 133325791#0 170104259 600711841 600711846 -170104260 -600711850 -1133370808 -600711856 -34942579 34942579 600711856 600711862 600711850 170104260 -600711846 -600711841 -170104259"/>
    </vehicle>
    <vehicle id="bus43" type="bus_bus" depart="645.00">
        <route edges="-464551516 -10221485#2 10221485#0 464551516 464551520#0 456678634#0 625060015 151724336 170043629 170043635 456678647 170043644#0 1319143452#0 220813798#0 129915058#0 129915062 296659358 288179985#0 296659356 296659359 187285126 296659364 482241562 296659367 296659363#0 33183107 170000691#0 35967847"/>
    </vehicle>
    <vehicle id="bus44" type="bus_bus" depart="660.00">
        <route edges="59552742 59552711 27796191#0 27796191#1 143855351 667866522#0 187641732#0 835805765 210015357#0 324046001 324045999#0 463177309 463177310#0 661035326 324045993#0 222031054#0 319285809 54357166 51138782#2 1168961266 319285808#0 319285808#1 319285808#2 319285808#3 1103880808#0 1168961265#0 240381591#0 240381591#1 460847239#0 328773701#0 548862185 548862184#0 548862179 227348517#0 1156986394 201007773#0 52955389#0 34572878#0 126765639#0 59546341#0 727250790 126765648#0 24680099 1322111544 58722670 235997637"/>
    </vehicle>
    <vehicle id="bus45" type="bus_bus" depart="675.00">
        <route edges="-27533472 26252423#0 17044541#0 59546331 1147450677#0 1280666594 1280666596#0 264863287#0 264863287#1 489635601#0 612407189#0 380858686 374287480#0 463177305#0 359888873#0 464551518#0 456678634#0 625060015 151724336 170043629 170043635 -296659371 -170043629 170043664#0 170043645"/>
    </vehicle>
    <vehicle id="bus46" type="bus_bus" depart="690.00">
        <route edges="952945080#1 16610261 1091525591 296896088#0 296896088#1 296896088#2 1091525590 296896087#0 50219642#0 54267810 84596611 1432084980#0 1432084980#1 459668281#0 459668282#0 1101028767 60616232 366806250 1133257418 1354366253#1 1354366162#1 59716282 915062445 1233530733 915062449 288179985#0 296659356 296659359 187285126 296659364 482241562 296659367 296659363#0"/>
    </vehicle>
    <vehicle id="bus47" type="bus_bus" depart="705.00">
        <route edges="894039050 761231266 151768271 -481398535 -50219615 7988631 126612905 170000707 7988632 -292058174 -50219613 -292058180 -292058182 170000684 292058187#0 171721790#0 288179987 296659365 170000695#0 263228460 170000686#0 296659366#0 170000689#0 35967847 170043627 687445680 33183112#0 -296659367 -482241562 -296659364 -480882204#1 -296659359 -296659360 -288179985#1 -296659361#1 -296659357 -129915058#1 -220813798#2 170043625#0 552840021#0 455480606 220813799#0 220813799#1 1031465512#1 37337287#0 324061359#1 324061358 324061356#0 324061355#0 324061352 385208720 324061353 264534309#0 489635622 264534310 201008967#0 1181724795 1147450681 1181724796#0 1147450680 1181724794 207233934#3 489635602 59546343#0 1365930983 183184921 548875280 27533468#0 289800579 59556906#0 59556906#1 59556906#2"/>
    </vehicle>
    <vehicle id="bus48" type="bus_bus" depart="720.00">
        <route edges="-1257170577#1 1257170577#1 548875276#0 17097296 34800660#2 288231838#0 1156986394 201007773#0 52955389#0 34572878#0 126765639#0 59546341#0 727250790 126765648#0 32790772#0 235997652#0 30853950#0 30853950#2 30853950#3 30853950#4 1084897572#1 1084897573#1 1084897573#2 1084897573#4 24301663 25925545 220798338 311740485 418580600 34865692#0 1212627953#0 1212627953#1 1212627952 312722382 24301465#0 170104289#0 315630014 315630016#0 315630016#3 1206485900 286707429#2 251290686 481398525 293201850 202109189 481398528 170000679 170000680 170000678 598957761 50219615 481398535"/>
    </vehicle>
    <vehicle id="bus49" type="bus_bus" depart="735.00">
        <route edges="485955798 625093157#0 262231193#0 17097296 34800660#2 288231838#0 1156986394 201007773#0 52955389#0 148233391#0 148233391#2 35049506 296910356 -252699903#2 -50219639#2 -296896087#2 -1091525590 1091525590 296896087#0"/>
    </vehicle>
    <vehicle id="bus50" type="bus_bus" depart="750.00">
        <route edges="1327330690 183184925#0 1365930983 183184921 27533471#0 263228457#0 27533472 291749682 1257170577#1 548875276#0 17097296 34800660#2 288231838#0 1156986394 201007773#0 52955389#0 148233391#0 148233391#2 35049506 296910356 35049503#0 384916877"/>
    </vehicle>
    <vehicle id="bus51" type="bus_bus" depart="765.00">
        <route edges="-481230968#1 -456678637#2 456678644#0 456678644#1 456678982#0 -170043664#2 170043629 170043635 456678647 170043644#0 552840021#0 455480606 220813799#0 220813799#1 1031465512#1 37337287#0 447597733#0 32266148 791153426 1168961271 791153428 324045990#0 324227716#0 793133565#0 459668283#0 368759363#0 368759363#4 1432084982 32266118#0 384916877 200133745#0 549819999#0 50219638 549820000#0 235997648#0"/>
    </vehicle>
    <vehicle id="bus52" type="bus_bus" depart="780.00">
        <route edges="625093160#0 625093160#2 625093160#3 625093160#4 1001157893#0 1001157893#1 487063309#0 161324505#0 311254910#1 311254910#2 548875282 151726509 27533472 291749682 1257170577#1 548875276#0 17097296 34800660#2 288231838#0 1156986394 201007773#0 52955389#0 148233391#0 148233391#2 35049506 296910356 -252699903#2 -50219639#2 -296896087#2 -1091525590 1091525590"/>
    </vehicle>
    <vehicle id="bus53" type="bus_bus" depart="795.00">
        <route edges="296896088#1 -296896088#1 -296896088#0 -1091525591 -16610261 -952945080#1 -952945080#0 1049075483 26935501#0 24301663 25925545 220798338 6116224 411078131 600316244 573201244 598944851 600316248 199188961 260784173 122108659 599334744 599334739 170019202 7988531 761233146 761233146-AddedOffRampEdge 280323996 -759168043 8109805 51850996 -548883610"/>
    </vehicle>
    <vehicle id="bus54" type="bus_bus" depart="810.00">
        <route edges="725380349#0 1168961266 319285808#0 319285808#1 319285808#2 319285808#3 1103880808#0 1168961265#0 240381591#0 240381591#1 460847239#0 328773701#0 548862185 548862184#0 548862179 227348517#0 1156986394 201007773#0 52955389#0 34572878#0 126765639#0 59546341#0 727250790 126765648#0 32790772#0 235997652#0 30853950#0 30853950#2 30853950#3 30853950#4 1084897572#1 1084897573#1 598944885#1 598944885#3"/>
    </vehicle>
    <vehicle id="bus55" type="bus_bus" depart="825.00">
        <route edges="1492230041 324061372#0 210015357#0 324046001 324045999#0 463177309 324046003#0 359888873#0 464551518#0 456678634#0 625060015 151724336 170043629 170043635 456678647 170043644#0 1319143452#0 220813798#0 129915058#0 129915062 296659358 288179985#0 296659356 296659359 187285126 296659364 482241562 296659367 296659363#0 33183107 170000691#0 35967848#0 170000688 32908559 -296659375 -35967842 -1011477960 -441733751 -7988548 -288069924 -35967841 -34800652 -31563959 31563956 458338072 34800654 1206485920 952945082#0 1206485915 34800658 375667879"/>
    </vehicle>
    <vehicle id="bus56" type="bus_bus" depart="840.00">
        <route edges="385208720 359888873#0 464551518#0 456678634#0 625060015 151724336 170043629 170043635 456678647 170043644#0 552840025#0 296659369#0 296659369#1 552840035 552840037#0 455480607#0 455480607#5 481230979 481230975 -481230968#1"/>
    </vehicle>
    <vehicle id="bus57" type="bus_bus" depart="855.00">
        <route edges="552840035 552840036#0 455480608 552840023#0 552840021#0 455480606 220813799#0 220813799#1 1031465512#1 37337287#0 447597733#0 32266148 791153426 1168961271 791153428 324045990#0 324227716#0 793133565#0 459668283#0 368759363#0 368759363#4 1432084982 32266118#0 384916877 200133745#0 549819999#0 50219638 1085736096 -296896087#2 -1091525590 -296896088#2 296896088#2"/>
    </vehicle>
    <vehicle id="bus58" type="bus_bus" depart="870.00">
        <route edges="587486413 772272442 202076600 34846200 202076596#0 753573639 34572672 24301385 20306606 24301648 170104276 410658496 360177728 360177727#0 375667879 411029238#0 411047570 411029240#0 288069907#0 550427733 288069928 288069930 551455119 402511017 288069924 7988548 441733751 1011477960 35967842 296659375 288179988#0 296659366#0 170000689#0 35967847 170043627 687445680 33183112#0 -296659367 -482241562 -296659364 -480882204#1 187285144#0 -187285144#1 187285126 296659364"/>
    </vehicle>
    <vehicle id="bus59" type="bus_bus" depart="885.00">
        <route edges="-1011477960 -441733751 -7988548 -288069924 -422097018 -551455119 -288069930 -551455122 -550427733 -260434412 -411029240#2 410658506#0 498838258 623631173 504026254 411047573-AddedOnRampEdge 411047573 363390392 410658492 334713314 334713313#1 170104270 31857165 445757871 445757872 24901599 573201242 296896077#1 50219636 952945080#1 16610261 1091525591 296896088#0 296896088#1 296896088#2 1091525590 296896087#0 50219642#0 54267810 84596611 1432084980#0"/>
    </vehicle>
    <vehicle id="bus60" type="bus_bus" depart="900.00">
        <route edges="-16610261 -952945080#1 -952945080#0 1049075483 26935501#0 24301663 25925545 220798338 311740485 418580600 34865692#0 1212627953#0 1212627953#1 1212627952 312722382 34800657#0 288069912 170104265 953791874 170104258 34572676 133325790#0 753573639 34572672 20306878 689753983"/>
    </vehicle>
    <vehicle id="bus61" type="bus_bus" depart="915.00">