<?xml version="1.0" encoding="UTF-8"?>

<!-- generated on 2026-03-29 18:57:19.919600 by Eclipse SUMO randomTrips.py v1_26_0+0000-fa7df22d7f1
<configuration>
    <net-file value="osm.net.xml.gz"/>
    <output-trip-file value="osm.passenger.trips.xml"/>
    <route-file value="osm.passenger.rou.xml"/>
    <prefix value="car"/>
    <vehicle-class value="passenger"/>
    <fringe-factor value="50"/>
    <end value="10800.0"/>
    <period value="1.5"/>
</configuration>
-->

<routes xmlns:xsi="http://www.w3.org/2001/XMLSchema-instance" xsi:noNamespaceSchemaLocation="http://sumo.dlr.de/xsd/routes_file.xsd">
    <vType id="car_passenger" vClass="passenger"/>
    <trip id="car0" depart="0.00" from="485955801" to="-129915065" type="car_passenger"/>
    <trip id="car1" depart="1.50" from="143841588" to="-660881710#1" type="car_passenger"/>
    <trip id="car2" depart="3.00" from="59546331" to="462184879" type="car_passenger"/>
    <trip id="car3" depart="4.50" from="759168046" to="-292058175" type="car_passenger"/>
    <trip id="car4" depart="6.00" from="27056409" to="-129915065" type="car_passenger"/>
    <trip id="car5" depart="7.50" from="129915065" to="27796190" type="car_passenger"/>
    <trip id="car6" depart="9.00" from="-202087356#0" to="-600711846" type="car_passenger"/>
    <trip id="car7" depart="10.50" from="49681113" to="299376586#0" type="car_passenger"/>
    <trip id="car8" depart="12.00" from="129915065" to="324061356#0" type="car_passenger"/>
    <trip id="car9" depart="13.50" from="600711846" to="-1206485921" type="car_passenger"/>
    <trip id="car10" depart="15.00" from="599334746" to="481398535" type="car_passenger"/>
    <trip id="car11" depart="16.50" from="170212982" to="-37546390" type="car_passenger"/>
    <trip id="car12" depart="18.00" from="7988642#0" to="1375659515#0" type="car_passenger"/>
    <trip id="car13" depart="19.50" from="-480882204#1" to="-296659375" type="car_passenger"/>
    <trip id="car14" depart="21.00" from="625093160#0" to="34572676" type="car_passenger"/>
    <trip id="car15" depart="22.50" from="599485294" to="50219616#0" type="car_passenger"/>
    <trip id="car16" depart="24.00" from="328773702#0" to="772272443" type="car_passenger"/>
    <trip id="car17" depart="25.50" from="183184922" to="299376586#0" type="car_passenger"/>
    <trip id="car18" depart="27.00" from="625093160#0" to="366806250" type="car_passenger"/>
    <trip id="car19" depart="28.50" from="660881710#0" to="31563956" type="car_passenger"/>
    <trip id="car20" depart="30.00" from="552840033#0" to="-170043664#2" type="car_passenger"/>
    <trip id="car21" depart="31.50" from="129915065" to="1088265904" type="car_passenger"/>
    <trip id="car22" depart="33.00" from="-315630017#1" to="-759336243#0" type="car_passenger"/>
    <trip id="car23" depart="34.50" from="-548883610" to="1088265904" type="car_passenger"/>
    <trip id="car24" depart="36.00" from="485955798" to="170019204" type="car_passenger"/>
    <trip id="car25" depart="37.50" from="183184922" to="-660881710#1" type="car_passenger"/>
    <trip id="car26" depart="39.00" from="143841588" to="689753983" type="car_passenger"/>
    <trip id="car27" depart="40.50" from="1181724795" to="498838258" type="car_passenger"/>
    <trip id="car28" depart="42.00" from="1147450680" to="170019204" type="car_passenger"/>
    <trip id="car29" depart="43.50" from="894039050" to="445757872" type="car_passenger"/>
    <trip id="car30" depart="45.00" from="359888871" to="464556600" type="car_passenger"/>
    <trip id="car31" depart="46.50" from="625093160#0" to="503811360" type="car_passenger"/>
    <trip id="car32" depart="48.00" from="129915065" to="-129915065" type="car_passenger"/>
    <trip id="car33" depart="49.50" from="170104259" to="1084897571#2" type="car_passenger"/>
    <trip id="car34" depart="51.00" from="126765650" to="689753983" type="car_passenger"/>
    <trip id="car35" depart="52.50" from="660881710#0" to="1212627952" type="car_passenger"/>
    <trip id="car36" depart="54.00" from="50219635" to="170104276" type="car_passenger"/>
    <trip id="car37" depart="55.50" from="759336243#0" to="264534309#0" type="car_passenger"/>
    <trip id="car38" depart="57.00" from="143841588" to="-759336243#0" type="car_passenger"/>
    <trip id="car39" depart="58.50" from="368759363#0" to="1015089615" type="car_passenger"/>
    <trip id="car40" depart="60.00" from="448969084" to="687050509" type="car_passenger"/>
    <trip id="car41" depart="61.50" from="240381587#1" to="-660881710#1" type="car_passenger"/>
    <trip id="car42" depart="63.00" from="952945080#1" to="27796190" type="car_passenger"/>
    <trip id="car43" depart="64.50" from="-463074434#1" to="-170104260" type="car_passenger"/>
    <trip id="car44" depart="66.00" from="-60616242" to="410658493" type="car_passenger"/>
    <trip id="car45" depart="67.50" from="59556908#0" to="235997648#0" type="car_passenger"/>
    <trip id="car46" depart="69.00" from="-288069930" to="170019204" type="car_passenger"/>
    <trip id="car47" depart="70.50" from="943536782" to="292058181" type="car_passenger"/>
    <trip id="car48" depart="72.00" from="894039050" to="59556906#1" type="car_passenger"/>
    <trip id="car49" depart="73.50" from="-15391563" to="489635601#0" type="car_passenger"/>
    <trip id="car50" depart="75.00" from="50219639#0" to="296659367" type="car_passenger"/>
    <trip id="car51" depart="76.50" from="143841588" to="447597734#0" type="car_passenger"/>
    <trip id="car52" depart="78.00" from="-660887508" to="235997648#0" type="car_passenger"/>
    <trip id="car53" depart="79.50" from="660881710#0" to="10221485#0" type="car_passenger"/>
    <trip id="car54" depart="81.00" from="32266091" to="-50219635" type="car_passenger"/>
    <trip id="car55" depart="82.50" from="759336243#0" to="599334744" type="car_passenger"/>
    <trip id="car56" depart="84.00" from="170000684" to="441733751" type="car_passenger"/>
    <trip id="car57" depart="85.50" from="481398525" to="-37546390" type="car_passenger"/>
    <trip id="car58" depart="87.00" from="59552742" to="296896077#1" type="car_passenger"/>
    <trip id="car59" depart="88.50" from="59556908#0" to="292058186#0" type="car_passenger"/>
    <trip id="car60" depart="90.00" from="-1015089614" to="126765639#0" type="car_passenger"/>
    <trip id="car61" depart="91.50" from="-170019198" to="689753983" type="car_passenger"/>
    <trip id="car62" depart="93.00" from="660881710#0" to="58722665" type="car_passenger"/>
    <trip id="car63" depart="94.50" from="170019201" to="-24741755" type="car_passenger"/>
    <trip id="car64" depart="96.00" from="660881710#0" to="689753983" type="car_passenger"/>
    <trip id="car65" depart="97.50" from="-34942579" to="27056413" type="car_passenger"/>
    <trip id="car66" depart="99.00" from="-292058181" to="503811360" type="car_passenger"/>
    <trip id="car67" depart="100.50" from="59552742" to="-34800652" type="car_passenger"/>
    <trip id="car68" depart="102.00" from="296896088#1" to="299376586#0" type="car_passenger"/>
    <trip id="car69" depart="103.50" from="143841588" to="599334748" type="car_passenger"/>
    <trip id="car70" depart="105.00" from="27056409" to="-660881710#1" type="car_passenger"/>
    <trip id="car71" depart="106.50" from="33290235" to="50219616#0" type="car_passenger"/>
    <trip id="car72" depart="108.00" from="126765650" to="1206485900" type="car_passenger"/>
    <trip id="car73" depart="109.50" from="943535587" to="459668281#0" type="car_passenger"/>
    <trip id="car74" depart="111.00" from="1029627806" to="-660881710#1" type="car_passenger"/>
    <trip id="car75" depart="112.50" from="170212982" to="324061353" type="car_passenger"/>
    <trip id="car76" depart="114.00" from="129915065" to="-660881710#1" type="car_passenger"/>
    <trip id="car77" depart="115.50" from="-293201850" to="411029238#0" type="car_passenger"/>
    <trip id="car78" depart="117.00" from="129915065" to="687050509" type="car_passenger"/>
    <trip id="car79" depart="118.50" from="660881710#0" to="-24741755" type="car_passenger"/>
    <trip id="car80" depart="120.00" from="129915065" to="462184879" type="car_passenger"/>
    <trip id="car81" depart="121.50" from="126765651#0" to="-37546390" type="car_passenger"/>
    <trip id="car82" depart="123.00" from="796275450" to="30853950#2" type="car_passenger"/>
    <trip id="car83" depart="124.50" from="296659369#1" to="504026254" type="car_passenger"/>
    <trip id="car84" depart="126.00" from="600316244" to="-50219635" type="car_passenger"/>
    <trip id="car85" depart="127.50" from="-49681113" to="235997648#0" type="car_passenger"/>
    <trip id="car86" depart="129.00" from="27056409" to="27056413" type="car_passenger"/>
    <trip id="car87" depart="130.50" from="587486413" to="462184879" type="car_passenger"/>
    <trip id="car88" depart="132.00" from="894039050" to="-296896088#1" type="car_passenger"/>
    <trip id="car89" depart="133.50" from="660881710#0" to="-759336243#0" type="car_passenger"/>
    <trip id="car90" depart="135.00" from="126765650" to="24301385" type="car_passenger"/>
    <trip id="car91" depart="136.50" from="27056409" to="1088265904" type="car_passenger"/>
    <trip id="car92" depart="138.00" from="133325791#0" to="689753983" type="car_passenger"/>
    <trip id="car93" depart="139.50" from="27056409" to="59556906#2" type="car_passenger"/>
    <trip id="car94" depart="141.00" from="34942579" to="-202087356#1" type="car_passenger"/>
    <trip id="car95" depart="142.50" from="95842194#0" to="58722665" type="car_passenger"/>
    <trip id="car96" depart="144.00" from="894039050" to="689753983" type="car_passenger"/>
    <trip id="car97" depart="145.50" from="625093160#0" to="-50219613" type="car_passenger"/>
    <trip id="car98" depart="147.00" from="315630016#3" to="-660881710#1" type="car_passenger"/>
    <trip id="car99" depart="148.50" from="24300169#2" to="-24741755" type="car_passenger"/>
    <trip id="car100" depart="150.00" from="183184922" to="7988632" type="car_passenger"/>
    <trip id="car101" depart="151.50" from="288069964#0" to="235997648#0" type="car_passenger"/>
    <trip id="car102" depart="153.00" from="7988642#0" to="943527227" type="car_passenger"/>
    <trip id="car103" depart="154.50" from="35967847" to="485955803" type="car_passenger"/>
    <trip id="car104" depart="156.00" from="1133911657" to="1088265904" type="car_passenger"/>
    <trip id="car105" depart="157.50" from="894039050" to="31563960" type="car_passenger"/>
    <trip id="car106" depart="159.00" from="-24741556" to="32266148" type="car_passenger"/>
    <trip id="car107" depart="160.50" from="32266091" to="58722665" type="car_passenger"/>
    <trip id="car108" depart="162.00" from="1133911657" to="772272443" type="car_passenger"/>
    <trip id="car109" depart="163.50" from="-315630017#1" to="-50219635" type="car_passenger"/>
    <trip id="car110" depart="165.00" from="460847239#0" to="462184879" type="car_passenger"/>
    <trip id="car111" depart="166.50" from="129915065" to="-329388956" type="car_passenger"/>
    <trip id="car112" depart="168.00" from="725380349#0" to="-759336243#0" type="car_passenger"/>
    <trip id="car113" depart="169.50" from="459668283#0" to="367911372" type="car_passenger"/>
    <trip id="car114" depart="171.00" from="27056409" to="32266118#0" type="car_passenger"/>
    <trip id="car115" depart="172.50" from="324045990#0" to="689753983" type="car_passenger"/>
    <trip id="car116" depart="174.00" from="126765650" to="482241562" type="car_passenger"/>
    <trip id="car117" depart="175.50" from="129915065" to="170104276" type="car_passenger"/>
    <trip id="car118" depart="177.00" from="50219635" to="1133257418" type="car_passenger"/>
    <trip id="car119" depart="178.50" from="-296659357" to="263228460" type="car_passenger"/>
    <trip id="car120" depart="180.00" from="953791874" to="943536782" type="car_passenger"/>
    <trip id="car121" depart="181.50" from="-296659360" to="-660881710#1" type="car_passenger"/>
    <trip id="car122" depart="183.00" from="143841588" to="689753983" type="car_passenger"/>
    <trip id="car123" depart="184.50" from="660881710#0" to="60616212#3" type="car_passenger"/>
    <trip id="car124" depart="186.00" from="183184922" to="-411029240#2" type="car_passenger"/>
    <trip id="car125" depart="187.50" from="625093160#0" to="481398535" type="car_passenger"/>
    <trip id="car126" depart="189.00" from="485955798" to="7988645" type="car_passenger"/>
    <trip id="car127" depart="190.50" from="50219635" to="-126612908#0" type="car_passenger"/>
    <trip id="car128" depart="192.00" from="6116224" to="1133257417" type="car_passenger"/>
    <trip id="car129" depart="193.50" from="50219635" to="689753983" type="car_passenger"/>
    <trip id="car130" depart="195.00" from="1133911657" to="-329388956" type="car_passenger"/>
    <trip id="car131" depart="196.50" from="-60616212#0" to="299376586#0" type="car_passenger"/>
    <trip id="car132" depart="198.00" from="143841588" to="34800652" type="car_passenger"/>
    <trip id="car133" depart="199.50" from="587486413" to="-623882619" type="car_passenger"/>
    <trip id="car134" depart="201.00" from="485955798" to="1029627806" type="car_passenger"/>
    <trip id="car135" depart="202.50" from="31563959" to="687050509" type="car_passenger"/>
    <trip id="car136" depart="204.00" from="625093160#0" to="-296659357" type="car_passenger"/>
    <trip id="car137" depart="205.50" from="27056409" to="1088265904" type="car_passenger"/>
    <trip id="car138" depart="207.00" from="-1091525590" to="503811360" type="car_passenger"/>
    <trip id="car139" depart="208.50" from="485955798" to="1002762812" type="car_passenger"/>
    <trip id="car140" depart="210.00" from="59552742" to="299376586#0" type="car_passenger"/>
    <trip id="car141" depart="211.50" from="27056409" to="-129915065" type="car_passenger"/>
    <trip id="car142" depart="213.00" from="-296659365" to="619706215" type="car_passenger"/>
    <trip id="car143" depart="214.50" from="759336243#0" to="299376586#0" type="car_passenger"/>
    <trip id="car144" depart="216.00" from="625093160#0" to="319285809" type="car_passenger"/>
    <trip id="car145" depart="217.50" from="1133911657" to="-330596253" type="car_passenger"/>
    <trip id="car146" depart="219.00" from="170019202" to="687050509" type="car_passenger"/>
    <trip id="car147" depart="220.50" from="59556908#0" to="59556906#0" type="car_passenger"/>
    <trip id="car148" depart="222.00" from="759336243#0" to="-660881710#1" type="car_passenger"/>
    <trip id="car149" depart="223.50" from="133325790#0" to="-329388956" type="car_passenger"/>
    <trip id="car150" depart="225.00" from="59556908#0" to="620563379#0" type="car_passenger"/>
    <trip id="car151" depart="226.50" from="24305505" to="368759363#4" type="car_passenger"/>
    <trip id="car152" depart="228.00" from="1133911657" to="689753983" type="car_passenger"/>
    <trip id="car153" depart="229.50" from="660881710#0" to="772272443" type="car_passenger"/>
    <trip id="car154" depart="231.00" from="600711856" to="60616242" type="car_passenger"/>
    <trip id="car155" depart="232.50" from="170212982" to="689753983" type="car_passenger"/>
    <trip id="car156" depart="234.00" from="598944885#3" to="59716282" type="car_passenger"/>
    <trip id="car157" depart="235.50" from="600711856" to="1084897571#1" type="car_passenger"/>
    <trip id="car158" depart="237.00" from="59556908#0" to="-329388956" type="car_passenger"/>
    <trip id="car159" depart="238.50" from="660881710#0" to="59546340" type="car_passenger"/>
    <trip id="car160" depart="240.00" from="292058174" to="1156986397" type="car_passenger"/>
    <trip id="car161" depart="241.50" from="59556908#0" to="-660881710#1" type="car_passenger"/>
    <trip id="car162" depart="243.00" from="-171202437#1" to="-538081341#4" type="car_passenger"/>
    <trip id="car163" depart="244.50" from="170212982" to="59716284#0" type="car_passenger"/>
    <trip id="car164" depart="246.00" from="894039050" to="1088265904" type="car_passenger"/>
    <trip id="car165" depart="247.50" from="487063308" to="171721790#0" type="car_passenger"/>
    <trip id="car166" depart="249.00" from="894039050" to="296659366#0" type="car_passenger"/>
    <trip id="car167" depart="250.50" from="796275450" to="-329388956" type="car_passenger"/>
    <trip id="car168" depart="252.00" from="894039050" to="-50219635" type="car_passenger"/>
    <trip id="car169" depart="253.50" from="84596611" to="1079580311" type="car_passenger"/>
    <trip id="car170" depart="255.00" from="-60616212#3" to="235997648#0" type="car_passenger"/>
    <trip id="car171" depart="256.50" from="587486413" to="1208077755" type="car_passenger"/>
    <trip id="car172" depart="258.00" from="470079882" to="27796190" type="car_passenger"/>
    <trip id="car173" depart="259.50" from="201008967#0" to="31563954#0" type="car_passenger"/>
    <trip id="car174" depart="261.00" from="1432084980#0" to="481398535" type="car_passenger"/>
    <trip id="car175" depart="262.50" from="-10221485#2" to="689753983" type="car_passenger"/>
    <trip id="car176" depart="264.00" from="33183107" to="485955805#0" type="car_passenger"/>
    <trip id="car177" depart="265.50" from="59552742" to="462184879" type="car_passenger"/>
    <trip id="car178" depart="267.00" from="183184922" to="-24741755" type="car_passenger"/>
    <trip id="car179" depart="268.50" from="50219635" to="1319143452#0" type="car_passenger"/>
    <trip id="car180" depart="270.00" from="170043650#0" to="58722665" type="car_passenger"/>
    <trip id="car181" depart="271.50" from="587486413" to="1133257422#1" type="car_passenger"/>
    <trip id="car182" depart="273.00" from="170019205" to="202076600" type="car_passenger"/>
    <trip id="car183" depart="274.50" from="24300169#5" to="1088265904" type="car_passenger"/>
    <trip id="car184" depart="276.00" from="1084897573#4" to="235997648#0" type="car_passenger"/>
    <trip id="car185" depart="277.50" from="796275450" to="462184879" type="car_passenger"/>
    <trip id="car186" depart="279.00" from="759336243#0" to="35967848#0" type="car_passenger"/>
    <trip id="car187" depart="280.50" from="170000691#0" to="299376586#0" type="car_passenger"/>
    <trip id="car188" depart="282.00" from="-1011477960" to="1088265904" type="car_passenger"/>
    <trip id="car189" depart="283.50" from="27056409" to="31857165" type="car_passenger"/>
    <trip id="car190" depart="285.00" from="50219635" to="27056413" type="car_passenger"/>
    <trip id="car191" depart="286.50" from="27056409" to="-660881710#1" type="car_passenger"/>
    <trip id="car192" depart="288.00" from="296659375" to="687050509" type="car_passenger"/>
    <trip id="car193" depart="289.50" from="59556908#0" to="-50219635" type="car_passenger"/>
    <trip id="car194" depart="291.00" from="-34942578" to="27796190" type="car_passenger"/>
    <trip id="car195" depart="292.50" from="485955798" to="1365930983" type="car_passenger"/>
    <trip id="car196" depart="294.00" from="50219635" to="-660881710#1" type="car_passenger"/>
    <trip id="car197" depart="295.50" from="126765650" to="-129915065" type="car_passenger"/>
    <trip id="car198" depart="297.00" from="129915065" to="27056413" type="car_passenger"/>
    <trip id="car199" depart="298.50" from="625093160#0" to="-24741755" type="car_passenger"/>
    <trip id="car200" depart="300.00" from="264534309#0" to="410658512" type="car_passenger"/>
    <trip id="car201" depart="301.50" from="126765650" to="481398535" type="car_passenger"/>
    <trip id="car202" depart="303.00" from="32266091" to="-759336243#0" type="car_passenger"/>
    <trip id="car203" depart="304.50" from="50219635" to="-1133370808" type="car_passenger"/>
    <trip id="car204" depart="306.00" from="59552742" to="503811360" type="car_passenger"/>
    <trip id="car205" depart="307.50" from="-600711856" to="235997648#0" type="car_passenger"/>
    <trip id="car206" depart="309.00" from="1212627952" to="772272443" type="car_passenger"/>
    <trip id="car207" depart="310.50" from="32266091" to="-202087356#0" type="car_passenger"/>
    <trip id="car208" depart="312.00" from="133325790#0" to="58722665" type="car_passenger"/>
    <trip id="car209" depart="313.50" from="288179987" to="541347665#0" type="car_passenger"/>
    <trip id="car210" depart="315.00" from="50219635" to="8049704#0" type="car_passenger"/>
    <trip id="car211" depart="316.50" from="460847281" to="727250790" type="car_passenger"/>
    <trip id="car212" depart="318.00" from="753573639" to="351425727" type="car_passenger"/>
    <trip id="car213" depart="319.50" from="587486413" to="27796190" type="car_passenger"/>
    <trip id="car214" depart="321.00" from="625093160#0" to="299376586#0" type="car_passenger"/>
    <trip id="car215" depart="322.50" from="296896087#0" to="-952945080#0" type="car_passenger"/>
    <trip id="car216" depart="324.00" from="1319143452#0" to="411078130#0" type="car_passenger"/>
    <trip id="car217" depart="325.50" from="59552742" to="288069928" type="car_passenger"/>
    <trip id="car218" depart="327.00" from="485955798" to="1088265904" type="car_passenger"/>
    <trip id="car219" depart="328.50" from="-296659375" to="1088265904" type="car_passenger"/>
    <trip id="car220" depart="330.00" from="143841588" to="1245089840#1" type="car_passenger"/>
    <trip id="car221" depart="331.50" from="33290236" to="-37546390" type="car_passenger"/>
    <trip id="car222" depart="333.00" from="129915065" to="481398535" type="car_passenger"/>
    <trip id="car223" depart="334.50" from="573201242" to="-24741755" type="car_passenger"/>
    <trip id="car224" depart="336.00" from="24901599" to="299376586#0" type="car_passenger"/>
    <trip id="car225" depart="337.50" from="264863287#0" to="-660881710#1" type="car_passenger"/>
    <trip id="car226" depart="339.00" from="27056409" to="687050509" type="car_passenger"/>
    <trip id="car227" depart="340.50" from="447597734#0" to="481398535" type="car_passenger"/>
    <trip id="car228" depart="342.00" from="640252587" to="503811360" type="car_passenger"/>
    <trip id="car229" depart="343.50" from="183583161#0" to="-115868477" type="car_passenger"/>
    <trip id="car230" depart="345.00" from="627027217" to="761233146-AddedOffRampEdge" type="car_passenger"/>
    <trip id="car231" depart="346.50" from="34800657#0" to="34572675" type="car_passenger"/>
    <trip id="car232" depart="348.00" from="129915065" to="-660881710#1" type="car_passenger"/>
    <trip id="car233" depart="349.50" from="27056409" to="-129915065" type="car_passenger"/>
    <trip id="car234" depart="351.00" from="170212982" to="463177309" type="car_passenger"/>
    <trip id="car235" depart="352.50" from="24301648" to="-482241562" type="car_passenger"/>
    <trip id="car236" depart="354.00" from="296659356" to="-334864581#2" type="car_passenger"/>
    <trip id="car237" depart="355.50" from="485955798" to="-129915065" type="car_passenger"/>
    <trip id="car238" depart="357.00" from="220813798#0" to="299376586#0" type="car_passenger"/>
    <trip id="car239" depart="358.50" from="-202087356#1" to="455480607#0" type="car_passenger"/>
    <trip id="car240" depart="360.00" from="1133911657" to="26539742" type="car_passenger"/>
    <trip id="car241" depart="361.50" from="-24741556" to="170019204" type="car_passenger"/>
    <trip id="car242" depart="363.00" from="126765650" to="129384532#0" type="car_passenger"/>
    <trip id="car243" depart="364.50" from="59552742" to="170019204" type="car_passenger"/>
    <trip id="car244" depart="366.00" from="59552742" to="58722665" type="car_passenger"/>
    <trip id="car245" depart="367.50" from="1354366253#1" to="-282211728" type="car_passenger"/>
    <trip id="car246" depart="369.00" from="-170019198" to="296896077#1" type="car_passenger"/>
    <trip id="car247" depart="370.50" from="95842194#1" to="16923057#2" type="car_passenger"/>
    <trip id="car248" depart="372.00" from="49681113" to="503811360" type="car_passenger"/>
    <trip id="car249" depart="373.50" from="796275450" to="-600711850" type="car_passenger"/>
    <trip id="car250" depart="375.00" from="-170019200" to="-37546390" type="car_passenger"/>
    <trip id="car251" depart="376.50" from="1084897573#1" to="462184879" type="car_passenger"/>
    <trip id="car252" depart="378.00" from="375667879" to="-660881710#1" type="car_passenger"/>
    <trip id="car253" depart="379.50" from="549819999#0" to="503811360" type="car_passenger"/>
    <trip id="car254" depart="381.00" from="59552742" to="-329388956" type="car_passenger"/>
    <trip id="car255" depart="382.50" from="620563379#0" to="772272443" type="car_passenger"/>
    <trip id="car256" depart="384.00" from="-60616212#2" to="-129915065" type="car_passenger"/>
    <trip id="car257" depart="385.50" from="170043635" to="463074433" type="car_passenger"/>
    <trip id="car258" depart="387.00" from="7988642#1" to="170213368" type="car_passenger"/>
    <trip id="car259" depart="388.50" from="587486413" to="-24741755" type="car_passenger"/>
    <trip id="car260" depart="390.00" from="54357166" to="410658493" type="car_passenger"/>
    <trip id="car261" depart="391.50" from="-550427733" to="503811360" type="car_passenger"/>
    <trip id="car262" depart="393.00" from="625093160#0" to="33290236" type="car_passenger"/>
    <trip id="car263" depart="394.50" from="1031465512#1" to="7988531" type="car_passenger"/>
    <trip id="car264" depart="396.00" from="59556908#0" to="16064694#1" type="car_passenger"/>
    <trip id="car265" depart="397.50" from="27056409" to="170019204" type="car_passenger"/>
    <trip id="car266" depart="399.00" from="32266091" to="1492229431#0" type="car_passenger"/>
    <trip id="car267" depart="400.50" from="625093160#0" to="548883609" type="car_passenger"/>
    <trip id="car268" depart="402.00" from="-600711846" to="772272443" type="car_passenger"/>
    <trip id="car269" depart="403.50" from="485955798" to="552840033#0" type="car_passenger"/>
    <trip id="car270" depart="405.00" from="573201244" to="235997648#0" type="car_passenger"/>
    <trip id="car271" depart="406.50" from="587486413" to="772272443" type="car_passenger"/>
    <trip id="car272" depart="408.00" from="143841588" to="541347665#0" type="car_passenger"/>
    <trip id="car273" depart="409.50" from="33183107" to="27056413" type="car_passenger"/>
    <trip id="car274" depart="411.00" from="27056409" to="50219638" type="car_passenger"/>
    <trip id="car275" depart="412.50" from="143841588" to="58722665" type="car_passenger"/>
    <trip id="car276" depart="414.00" from="625093160#0" to="-292058174" type="car_passenger"/>
    <trip id="car277" depart="415.50" from="660881710#0" to="-759336243#0" type="car_passenger"/>
    <trip id="car278" depart="417.00" from="292058187#0" to="35049499#0" type="car_passenger"/>
    <trip id="car279" depart="418.50" from="183184925#0" to="-129915065" type="car_passenger"/>
    <trip id="car280" depart="420.00" from="625093160#0" to="-50219635" type="car_passenger"/>
    <trip id="car281" depart="421.50" from="126765650" to="541347665#0" type="car_passenger"/>
    <trip id="car282" depart="423.00" from="170212982" to="60616227#0" type="car_passenger"/>
    <trip id="car283" depart="424.50" from="550427733" to="1088265904" type="car_passenger"/>
    <trip id="car284" depart="426.00" from="-129915058#1" to="696236572" type="car_passenger"/>
    <trip id="car285" depart="427.50" from="54357166" to="456678645#0" type="car_passenger"/>
    <trip id="car286" depart="429.00" from="319285808#0" to="541347665#0" type="car_passenger"/>
    <trip id="car287" depart="430.50" from="-481230968#1" to="-660881710#1" type="car_passenger"/>
    <trip id="car288" depart="432.00" from="54357173#1" to="115891666#0" type="car_passenger"/>
    <trip id="car289" depart="433.50" from="441733751" to="27056413" type="car_passenger"/>
    <trip id="car290" depart="435.00" from="324061373" to="235997648#0" type="car_passenger"/>
    <trip id="car291" depart="436.50" from="59552742" to="1322111544" type="car_passenger"/>
    <trip id="car292" depart="438.00" from="552840022#0" to="1085736098#0" type="car_passenger"/>
    <trip id="car293" depart="439.50" from="1354366162#1" to="-329388956" type="car_passenger"/>
    <trip id="car294" depart="441.00" from="126765650" to="-329388956" type="car_passenger"/>
    <trip id="car295" depart="442.50" from="328773702#0" to="503811360" type="car_passenger"/>
    <trip id="car296" depart="444.00" from="126765636#0" to="-660881710#1" type="car_passenger"/>
    <trip id="car297" depart="445.50" from="315630014" to="489635664" type="car_passenger"/>
    <trip id="car298" depart="447.00" from="894039050" to="288231840" type="car_passenger"/>
    <trip id="car299" depart="448.50" from="143841588" to="-31563951#1" type="car_passenger"/>
    <trip id="car300" depart="450.00" from="126765650" to="-660881710#1" type="car_passenger"/>
    <trip id="car301" depart="451.50" from="1233530732" to="-129915065" type="car_passenger"/>
    <trip id="car302" depart="453.00" from="324227723" to="1088265904" type="car_passenger"/>
    <trip id="car303" depart="454.50" from="894039050" to="299376586#0" type="car_passenger"/>
    <trip id="car304" depart="456.00" from="548883607" to="-329388956" type="car_passenger"/>
    <trip id="car305" depart="457.50" from="660881710#0" to="277760675" type="car_passenger"/>
    <trip id="car306" depart="459.00" from="660881710#0" to="312722382" type="car_passenger"/>
    <trip id="car307" depart="460.50" from="296659364" to="235997648#0" type="car_passenger"/>
    <trip id="car308" depart="462.00" from="126612909" to="-202109189" type="car_passenger"/>
    <trip id="car309" depart="463.50" from="796275450" to="27056413" type="car_passenger"/>
    <trip id="car310" depart="465.00" from="623631177" to="183184921" type="car_passenger"/>
    <trip id="car311" depart="466.50" from="-296659361#1" to="410658506#0" type="car_passenger"/>