<?xml version="1.0" encoding="UTF-8"?>

<!-- generated on 2026-03-29 18:57:29.468954 by Eclipse SUMO randomTrips.py v1_26_0+0000-fa7df22d7f1
<configuration>
    <net-file value="osm.net.xml.gz"/>
    <output-trip-file value="osm.tram.trips.xml"/>
    <route-file value="osm.tram.rou.xml"/>
    <prefix value="tram"/>
    <vehicle-class value="tram"/>
    <fringe-factor value="20"/>
    <end value="10800.0"/>
    <period value="30.0"/>
</configuration>
-->

<!-- generated on 2026-03-29T18:57:29.384681+07:00 by Eclipse SUMO duarouter 1.26.0
<duarouterConfiguration xmlns:xsi="http://www.w3.org/2001/XMLSchema-instance" xsi:noNamespaceSchemaLocation="http://sumo.dlr.de/xsd/duarouterConfiguration.xsd">

    <input>
        <net-file value="osm.net.xml.gz"/>
        <route-files value="osm.tram.trips.xml"/>
    </input>

    <output>
        <output-file value="osm.tram.rou.xml"/>
        <alternatives-output value="NUL"/>
    </output>

    <time>
        <begin value="0"/>
        <end value="10800.0"/>
    </time>

    <report>
        <no-warnings value="true"/>
        <ignore-errors value="true"/>
        <no-step-log value="true"/>
    </report>

</duarouterConfiguration>
-->

<routes xmlns:xsi="http://www.w3.org/2001/XMLSchema-instance" xsi:noNamespaceSchemaLocation="http://sumo.dlr.de/xsd/routes_file.xsd">
    <vType id="tram_tram" vClass="tram"/>
    <vehicle id="tram0" type="tram_tram" depart="0.00">
        <route edges="630350013#3 470079884#0 470079884#1 470079884#2 470079884#3 470079884#4 470079884#5 470079884#6 470079884#7 470079884#8 470079884#9 470079884#11 470079884#12 55532878#1 55532878#2 275203501#0 275203501#1 275203501#2"/>
    </vehicle>
    <vehicle id="tram1" type="tram_tram" depart="30.00">
        <route edges="628996581#2 628996581#3 628996581#4 628996581#5 628996581#8 628996581#9 628996581#10 628996581#11 628996581#12 696401143#0 696401143#1 696401143#2 696401143#3 592037802#0 592037802#1 592037802#3 592037802#4 592037796#1 592037796#2 592037796#3"/>
    </vehicle>
    <vehicle id="tram2" type="tram_tram" depart="60.00">
        <route edges="592037796#0 592037796#1 592037796#2 592037796#3 592037796#4 592037796#5 592037796#6 592037796#7 470079883#0 470079883#1 470079883#2 596931386#2 596931386#3 596931386#4 596931386#5 596931386#6 596931386#7 596931386#8 596931386#9 596931386#10"/>
    </vehicle>
    <vehicle id="tram3" type="tram_tram" depart="90.00">
        <route edges="592037796#3 592037796#4 592037796#5 592037796#6 592037796#7 470079883#0 470079883#1 470079883#2 596931386#2 596931386#3 596931386#4 596931386#5 596931386#6 596931386#7 596931386#8 596931386#9 596931386#10 380176471#0 54724422#0 54724422#2"/>
    </vehicle>
    <vehicle id="tram4" type="tram_tram" depart="120.00">
        <route edges="24288480#0 24288480#1 121097571#0 121097571#1 121097571#2 121097571#3 121097571#4 121097571#5 121097571#6 121097571#7 121097571#8 121097571#9"/>
    </vehicle>
    <vehicle id="tram5" type="tram_tram" depart="150.00">
        <route edges="784891248#0 784891248#1 784891248#2 592037779#0"/>
    </vehicle>
    <vehicle id="tram6" type="tram_tram" depart="180.00">
        <route edges="630350013#3 470079884#0 470079884#1 470079884#2 470079884#3 470079884#4 470079884#5 470079884#6 470079884#7 470079884#8 470079884#9 470079884#11 470079884#12 55532878#1 55532878#2 275203501#0 275203501#1 275203501#2 275203501#3 275203501#4 275203501#6 275203501#8 275203501#9 275203501#10 275203501#11 275203501#12 275203501#13 702806635#0 702806635#1"/>
    </vehicle>
    <vehicle id="tram7" type="tram_tram" depart="210.00">
        <route edges="623793086#1 623793086#2 623793086#3 623793091#0 623793091#1 623793091#2 623793091#3 333180123#0 333180123#1 333180123#2 333180123#3 592037809#0 592037809#1 592037809#3 592037809#4 592037809#5 784891244 630350012#1 630350012#2 630350012#4 630350012#5 630350012#7 630350012#8 784891248#0 784891248#1 784891248#2 592037779#0"/>
    </vehicle>
    <vehicle id="tram8" type="tram_tram" depart="240.00">
        <route edges="623793085#0 324047922#2"/>
    </vehicle>
    <vehicle id="tram9" type="tram_tram" depart="270.00">
        <route edges="324047924#0 324047924#1 324047924#2 623793089#0 623793089#1 623793089#2 623793089#3"/>
    </vehicle>
    <vehicle id="tram10" type="tram_tram" depart="300.00">
        <route edges="324047922#0 324047922#1 324047922#2"/>
    </vehicle>
    <vehicle id="tram11" type="tram_tram" depart="330.00">
        <route edges="623793092 326819654#1"/>
    </vehicle>
    <vehicle id="tram12" type="tram_tram" depart="360.00">
        <route edges="470079884#5 470079884#6 470079884#7 470079884#8 470079884#9 470079884#11 470079884#12 55532878#1 55532878#2"/>
    </vehicle>
    <vehicle id="tram13" type="tram_tram" depart="390.00">
        <route edges="54724395#1 54724395#2 54724395#4 54724395#5 54724395#6 54724395#7 54724395#8 54724395#9 121097722 331237099#0 331237099#1"/>
    </vehicle>
    <vehicle id="tram14" type="tram_tram" depart="420.00">
        <route edges="463882512 784891247#1 784891247#3 784891247#4 784891247#6 784891247#7 784891247#8"/>
    </vehicle>
    <vehicle id="tram15" type="tram_tram" depart="450.00">
        <route edges="324047922#0 324047922#1 324047922#2"/>
    </vehicle>
    <vehicle id="tram16" type="tram_tram" depart="480.00">
        <route edges="470079884#3 470079884#4 470079884#5 470079884#6 470079884#7 470079884#8 470079884#9 470079884#11 470079884#12 55532878#1 55532878#2 55532878#3 696401143#0 592037796#5 592037796#6"/>
    </vehicle>
    <vehicle id="tram17" type="tram_tram" depart="510.00">
        <route edges="630350013#3 470079884#0 470079884#1 470079884#2 470079884#3 470079884#4 470079884#5 470079884#6 470079884#7 470079884#8 470079884#9 470079884#11 470079884#12 55532878#1 55532878#2 55532878#3 55532878#4 55532878#5 55532878#6 784891244 630350012#1 630350012#2 630350012#4 630350012#5 630350012#7 630350012#8 784891248#0 784891248#1 784891248#2 592037779#0"/>
    </vehicle>
    <vehicle id="tram18" type="tram_tram" depart="540.00">
        <route edges="623793090#3 623793090#4 623793086#0 623793086#1 623793086#2 623793086#3 623793091#0 623793091#1 623793091#2 623793091#3 333180123#0 333180123#1 333180123#2 333180123#3 696401144#0 696401144#1 696401144#2 696401144#3 275203501#0 275203501#1 275203501#2 275203501#3 275203501#4 275203501#6 275203501#8 275203501#9 275203501#10 275203501#11 275203501#12 275203501#13 702806635#0 702806635#1"/>
    </vehicle>
    <vehicle id="tram19" type="tram_tram" depart="570.00">
        <route edges="470079883#1 470079883#2 596931386#2 596931386#3 596931386#4 596931386#5 596931386#6"/>
    </vehicle>
    <vehicle id="tram20" type="tram_tram" depart="600.00">
        <route edges="623793091#1 623793091#2 623793091#3 333180123#0 333180123#1 333180123#2 333180123#3 696401144#0 696401144#1 696401144#2 696401144#3 275203501#0 275203501#1 275203501#2 275203501#3 275203501#4 275203501#6 275203501#8 275203501#9 275203501#10 275203501#11 275203501#12 275203501#13 702806635#0 702806635#1"/>
    </vehicle>
    <vehicle id="tram21" type="tram_tram" depart="630.00">
        <route edges="592037796#0 592037796#1 592037796#2 592037796#3 592037796#4 592037796#5 592037796#6 592037796#7 470079883#0 470079883#1 470079883#2 596931386#2 596931386#3 596931386#4 596931386#5 596931386#6 596931386#7 596931386#8 596931386#9 596931386#10 380176471#0 54724422#0 54724422#2"/>
    </vehicle>
    <vehicle id="tram22" type="tram_tram" depart="660.00">
        <route edges="597486560#1 597486560#2 597486560#3 628996581#0 628996581#1 628996581#2 628996581#3 628996581#4 628996581#5 628996581#8 628996581#9 628996581#10 628996581#11 628996581#12 696401143#0 592037796#5 592037796#6 592037796#7 470079883#0 470079883#1 470079883#2 596931386#2 596931386#3 596931386#4 596931386#5 596931386#6 596931386#7 596931386#8 596931386#9 596931386#10 380176471#0 380176471#1"/>
    </vehicle>
    <vehicle id="tram23" type="tram_tram" depart="690.00">
        <route edges="623793085#0 623793085#1 623793089#0 623793089#1 623793089#2 623793089#3"/>
    </vehicle>
    <vehicle id="tram24" type="tram_tram" depart="720.00">
        <route edges="333180124#0 333180124#1 592037802#0 592037802#1 592037802#3 592037802#4 592037796#1 592037796#2 592037796#3 592037796#4 592037796#5 592037796#6 592037796#7 470079883#0 470079883#1 470079883#2 596931386#2 596931386#3 596931386#4 596931386#5 596931386#6 596931386#7 596931386#8 596931386#9 596931386#10 380176471#0 54724422#0 54724422#2"/>
    </vehicle>
    <vehicle id="tram25" type="tram_tram" depart="750.00">
        <route edges="630350013#3 470079884#0 470079884#1 470079884#2 470079884#3 470079884#4 470079884#5 470079884#6 470079884#7 470079884#8 470079884#9 470079884#11 470079884#12 55532878#1 55532878#2 55532878#3 696401143#0 592037796#5 592037796#6 592037796#7 470079883#0 470079883#1 470079883#2 596931386#2 596931386#3 596931386#4"/>
    </vehicle>
    <vehicle id="tram26" type="tram_tram" depart="780.00">
        <route edges="470079884#8 470079884#9 470079884#11 470079884#12 55532878#1 55532878#2 55532878#3 696401143#0 696401143#1 696401143#2 696401143#3 592037802#0 592037802#1 592037802#3 592037802#4 592037796#1 592037796#2 592037796#3 592037796#4"/>
    </vehicle>
    <vehicle id="tram27" type="tram_tram" depart="810.00">
        <route edges="623793093#0 623793093#1 623793093#3 623793093#4"/>
    </vehicle>
    <vehicle id="tram28" type="tram_tram" depart="840.00">
        <route edges="54724395#1 54724395#2 54724395#4 54724395#5 54724395#6 54724395#7 54724395#8 54724395#9 121097722 331237099#0 331237099#1"/>
    </vehicle>
    <vehicle id="tram29" type="tram_tram" depart="870.00">
        <route edges="630350013#3 470079884#0 470079884#1 470079884#2 470079884#3 470079884#4 470079884#5 470079884#6 470079884#7 470079884#8 470079884#9 470079884#11 470079884#12 55532878#1 55532878#2 55532878#3 696401143#0 592037796#5 592037796#6 592037796#7 470079883#0 470079883#1 470079883#2 596931386#2 596931386#3"/>
    </vehicle>
    <vehicle id="tram30" type="tram_tram" depart="900.00">
        <route edges="324047922#0 324047924#1 324047924#2 623793089#0 623793089#1 623793089#2 623793089#3"/>
    </vehicle>
    <vehicle id="tram31" type="tram_tram" depart="930.00">
        <route edges="208307632#0 208307632#1 623793088 623793090#0 623793090#1 623793090#2 623793090#3 623793090#4 623793086#0 623793086#1 623793086#2 623793086#3"/>
    </vehicle>
    <vehicle id="tram32" type="tram_tram" depart="960.00">
        <route edges="208307632#0 208307632#1 623793088 623793090#0 623793090#1 623793090#2 623793090#3 623793090#4 623793086#0 623793086#1 623793086#2 623793086#3 623793091#0 623793091#1 623793091#2 623793091#3 333180123#0 333180123#1 333180123#2 333180123#3 696401144#0 696401144#1 696401144#2 696401144#3 55532878#3 696401143#0 592037796#5 592037796#6 592037796#7 470079883#0 470079883#1 470079883#2 596931386#2 596931386#3 596931386#4 596931386#5 596931386#6 596931386#7 596931386#8 596931386#9 596931386#10 380176471#0 54724422#0 54724422#2"/>
    </vehicle>
    <vehicle id="tram33" type="tram_tram" depart="990.00">
        <route edges="208307632#0 208307632#1 623793088 623793090#0 623793090#1 623793090#2 623793090#3 623793090#4 623793086#0 623793086#1 623793086#2 623793086#3 623793091#0 623793091#1 623793091#2 623793091#3 333180123#0 333180123#1 333180123#2 333180123#3 592037809#0 592037809#1 592037809#3 592037809#4 592037809#5 784891244 630350012#1 630350012#2 630350012#4 630350012#5 630350012#7 630350012#8 784891248#0 784891248#1 784891248#2 592037779#0"/>
    </vehicle>
    <vehicle id="tram34" type="tram_tram" depart="1020.00">
        <route edges="623793085#0 324047922#2"/>
    </vehicle>
    <vehicle id="tram35" type="tram_tram" depart="1050.00">
        <route edges="596931386#6 596931386#7 596931386#8 596931386#9"/>
    </vehicle>
    <vehicle id="tram36" type="tram_tram" depart="1080.00">
        <route edges="24671202#10 784891245#0 784891245#1 784891245#2 784891247#0 784891247#1 784891247#3 784891247#4 784891247#6 784891247#7 784891247#8"/>
    </vehicle>
    <vehicle id="tram37" type="tram_tram" depart="1110.00">
        <route edges="470079884#8 470079884#9 470079884#11 470079884#12 55532878#1 55532878#2 55532878#3 696401143#0 592037796#5 592037796#6 592037796#7 470079883#0 470079883#1 470079883#2 596931386#2 596931386#3 596931386#4 596931386#5 596931386#6 596931386#7 596931386#8 596931386#9 596931386#10 380176471#0 54724422#0 54724422#2"/>
    </vehicle>
    <vehicle id="tram38" type="tram_tram" depart="1140.00">
        <route edges="24671202#10 784891245#0 784891245#1 784891245#2 784891247#0 784891247#1 784891247#3 784891247#4 784891247#6 784891247#7 784891247#8"/>
    </vehicle>
    <vehicle id="tram39" type="tram_tram" depart="1170.00">
        <route edges="623793094 623793092 326819654#1"/>
    </vehicle>
    <vehicle id="tram40" type="tram_tram" depart="1200.00">
        <route edges="55492807#8 55492807#11 55492807#12 55492807#13 55492807#14"/>
    </vehicle>
    <vehicle id="tram41" type="tram_tram" depart="1230.00">
        <route edges="324047924#0 324047922#1 324047922#2"/>
    </vehicle>
    <vehicle id="tram42" type="tram_tram" depart="1260.00">
        <route edges="55492807#12 55492807#13 55492807#14"/>
    </vehicle>
    <vehicle id="tram43" type="tram_tram" depart="1290.00">
        <route edges="592037796#0 592037796#1 592037796#2 592037796#3 592037796#4 592037796#5 592037796#6 592037796#7 470079883#0 470079883#1 470079883#2 596931386#2 596931386#3 596931386#4 596931386#5 596931386#6 596931386#7 596931386#8 596931386#9 596931386#10"/>
    </vehicle>
    <vehicle id="tram44" type="tram_tram" depart="1320.00">
        <route edges="470079884#6 470079884#7 470079884#8 470079884#9 470079884#11 470079884#12 55532878#1 55532878#2 55532878#3 55532878#4 55532878#5 55532878#6 784891244 630350012#1 630350012#2 630350012#4 630350012#5 630350012#7 630350012#8 784891248#0 784891248#1 784891248#2 592037779#0"/>
    </vehicle>
    <vehicle id="tram45" type="tram_tram" depart="1350.00">
        <route edges="55492807#8 55492807#11"/>
    </vehicle>
    <vehicle id="tram46" type="tram_tram" depart="1380.00">
        <route edges="24671202#10 784891245#0 784891245#1 784891245#2 784891247#0 784891247#1 784891247#3 784891247#4 784891247#6 784891247#7 784891247#8"/>
    </vehicle>
    <vehicle id="tram47" type="tram_tram" depart="1410.00">
        <route edges="55492807#8 55492807#11 55492807#12 55492807#13 55492807#14"/>
    </vehicle>
    <vehicle id="tram48" type="tram_tram" depart="1440.00">
        <route edges="597486560#1 597486560#2 597486560#3 628996581#0 628996581#1 628996581#2 628996581#3 628996581#4 628996581#5 628996581#8 628996581#9 628996581#10 628996581#11 628996581#12 696401143#0 592037796#5 592037796#6 592037796#7 470079883#0 470079883#1 470079883#2 596931386#2 596931386#3 596931386#4 596931386#5 596931386#6 596931386#7 596931386#8 596931386#9 596931386#10 380176471#0 54724422#0 54724422#2"/>
    </vehicle>
    <vehicle id="tram49" type="tram_tram" depart="1470.00">
        <route edges="333180124#0 333180124#1 592037802#0 592037802#1 592037802#3 592037802#4 592037796#1 592037796#2 592037796#3 592037796#4 592037796#5 592037796#6 592037796#7 470079883#0 470079883#1 470079883#2 596931386#2 596931386#3 596931386#4 596931386#5 596931386#6 596931386#7 596931386#8 596931386#9 596931386#10 380176471#0 54724422#0 54724422#2"/>
    </vehicle>
    <vehicle id="tram50" type="tram_tram" depart="1500.00">
        <route edges="628996581#9 628996581#10 628996581#11 628996581#12 696401143#0 592037796#5 592037796#6 592037796#7 470079883#0 470079883#1 470079883#2 596931386#2 596931386#3 596931386#4 596931386#5 596931386#6"/>
    </vehicle>
    <vehicle id="tram51" type="tram_tram" depart="1530.00">
        <route edges="54724395#1 54724395#2 54724395#4 54724395#5 54724395#6 54724395#7 54724395#8 54724395#9 121097722 331237099#0 331237099#1"/>
    </vehicle>
    <vehicle id="tram52" type="tram_tram" depart="1560.00">
        <route edges="208307632#0 208307632#1 623793088 623793090#0 623793090#1 623793090#2 623793090#3 623793090#4 623793086#0 623793086#1 623793086#2 623793086#3 623793091#0 623793091#1 623793091#2 623793091#3 333180123#0 333180123#1 333180123#2 333180123#3 592037809#0 592037809#1 592037809#3 592037809#4 592037809#5"/>
    </vehicle>
    <vehicle id="tram53" type="tram_tram" depart="1590.00">
        <route edges="333180123#3 592037809#0 592037809#1 592037809#3 592037809#4 592037809#5 784891244 630350012#1"/>
    </vehicle>
    <vehicle id="tram54" type="tram_tram" depart="1620.00">
        <route edges="592037796#0 592037796#1 592037796#2 592037796#3 592037796#4 592037796#5 592037796#6 592037796#7 470079883#0 470079883#1 470079883#2 596931386#2 596931386#3 596931386#4 596931386#5 596931386#6"/>
    </vehicle>
    <vehicle id="tram55" type="tram_tram" depart="1650.00">
        <route edges="333180124#0 333180124#1 592037802#0 592037802#1 592037802#3 592037802#4 592037796#1 592037796#2 592037796#3 592037796#4 592037796#5 592037796#6 592037796#7 470079883#0 470079883#1 470079883#2 596931386#2 596931386#3 596931386#4 596931386#5 596931386#6 596931386#7 596931386#8 596931386#9 596931386#10 380176471#0 54724422#0 54724422#2"/>
    </vehicle>
    <vehicle id="tram56" type="tram_tram" depart="1680.00">
        <route edges="623793085#0 324047922#2"/>
    </vehicle>
    <vehicle id="tram57" type="tram_tram" depart="1710.00">
        <route edges="470079884#11 470079884#12 55532878#1 55532878#2 275203501#0 275203501#1 275203501#2 275203501#3 275203501#4 275203501#6 275203501#8 275203501#9"/>
    </vehicle>
    <vehicle id="tram58" type="tram_tram" depart="1740.00">
        <route edges="57836818#0 57836818#1 121097571#1 121097571#2 121097571#3 121097571#4 121097571#5 121097571#6 121097571#7 121097571#8 121097571#9"/>
    </vehicle>
    <vehicle id="tram59" type="tram_tram" depart="1770.00">
        <route edges="623793088 623793090#0 623793090#1 623793090#2 623793090#3 623793090#4 623793086#0 623793086#1 623793086#2 623793086#3 623793091#0 623793091#1 623793091#2 623793091#3 333180123#0 333180123#1 333180123#2 333180123#3 696401144#0 696401144#1 696401144#2 696401144#3 275203501#0 275203501#1 275203501#2 275203501#3 275203501#4 275203501#6 275203501#8 275203501#9 275203501#10 275203501#11 275203501#12 275203501#13 702806635#0 702806635#1"/>
    </vehicle>
    <vehicle id="tram60" type="tram_tram" depart="1800.00">
        <route edges="55492807#11 55492807#12 55492807#13 55492807#14"/>
    </vehicle>
    <vehicle id="tram61" type="tram_tram" depart="1830.00">
        <route edges="630350013#3 470079884#0 470079884#1 470079884#2 470079884#3 470079884#4 470079884#5 470079884#6 470079884#7 470079884#8 470079884#9 470079884#11 470079884#12 55532878#1 55532878#2 275203501#0"/>
    </vehicle>
    <vehicle id="tram62" type="tram_tram" depart="1860.00">
        <route edges="55492807#8 55492807#11 55492807#12 55492807#13 55492807#14"/>
    </vehicle>
    <vehicle id="tram63" type="tram_tram" depart="1890.00">
        <route edges="470079884#12 55532878#1 55532878#2 275203501#0 275203501#1 275203501#2 275203501#3 275203501#4 275203501#6 275203501#8"/>
    </vehicle>
    <vehicle id="tram64" type="tram_tram" depart="1920.00">
        <route edges="696401144#1 696401144#2 696401144#3 275203501#0 275203501#1 275203501#2 275203501#3 275203501#4 275203501#6 275203501#8 275203501#9 275203501#10 275203501#11 275203501#12 275203501#13 702806635#0"/>
    </vehicle>
    <vehicle id="tram65" type="tram_tram" depart="1950.00">
        <route edges="470079884#3 470079884#4 470079884#5 470079884#6"/>
    </vehicle>
    <vehicle id="tram66" type="tram_tram" depart="1980.00">
        <route edges="623793086#0 623793086#1 623793086#2 623793086#3 623793091#0 623793091#1 623793091#2 623793091#3 333180123#0 333180123#1 333180123#2 333180123#3 592037809#0 592037809#1 592037809#3 592037809#4 592037809#5 784891244 630350012#1 630350012#2 630350012#4 630350012#5 630350012#7 630350012#8 784891248#0 784891248#1 784891248#2 592037779#0"/>
    </vehicle>
    <vehicle id="tram67" type="tram_tram" depart="2010.00">
        <route edges="24288480#0 24288480#1 121097571#0 121097571#1 121097571#2 121097571#3 121097571#4 121097571#5 121097571#6 121097571#7 121097571#8 121097571#9"/>
    </vehicle>
    <vehicle id="tram68" type="tram_tram" depart="2040.00">
        <route edges="623793085#0 324047922#2"/>
    </vehicle>
    <vehicle id="tram69" type="tram_tram" depart="2070.00">
        <route edges="324047922#0 324047922#1 324047922#2"/>
    </vehicle>
    <vehicle id="tram70" type="tram_tram" depart="2100.00">
        <route edges="597486560#1 597486560#2 597486560#3 628996581#0 628996581#1 628996581#2 628996581#3 628996581#4 628996581#5 628996581#8 628996581#9 628996581#10 628996581#11 628996581#12 696401143#0 696401143#1 696401143#2 696401143#3"/>
    </vehicle>
    <vehicle id="tram71" type="tram_tram" depart="2130.00">
        <route edges="208307632#1 623793088 623793090#0 623793090#1 623793090#2 623793090#3 623793090#4 623793086#0 623793086#1 623793086#2 623793086#3 623793091#0 623793091#1 623793091#2 623793091#3 333180123#0 333180123#1 333180123#2 333180123#3 696401144#0 696401144#1 696401144#2 696401144#3 275203501#0 275203501#1 275203501#2 275203501#3 275203501#4 275203501#6 275203501#8 275203501#9 275203501#10 275203501#11 275203501#12 275203501#13 702806635#0 702806635#1"/>
    </vehicle>
    <vehicle id="tram72" type="tram_tram" depart="2160.00">
        <route edges="628996581#10 628996581#11 628996581#12 696401143#0 592037796#5 592037796#6 592037796#7 470079883#0 470079883#1 470079883#2 596931386#2 596931386#3 596931386#4"/>
    </vehicle>
    <vehicle id="tram73" type="tram_tram" depart="2190.00">
        <route edges="333180123#1 333180123#2 333180123#3 696401144#0 696401144#1 696401144#2 696401144#3 55532878#3 696401143#0 592037796#5 592037796#6 592037796#7 470079883#0 470079883#1 470079883#2 596931386#2 596931386#3 596931386#4 596931386#5 596931386#6 596931386#7 596931386#8 596931386#9 596931386#10 380176471#0 54724422#0 54724422#2"/>
    </vehicle>
    <vehicle id="tram74" type="tram_tram" depart="2220.00">
        <route edges="630350013#3 470079884#0 470079884#1 470079884#2 470079884#3 470079884#4 470079884#5 470079884#6 470079884#7 470079884#8 470079884#9 470079884#11 470079884#12 55532878#1 55532878#2 275203501#0 275203501#1 275203501#2 275203501#3 275203501#4 275203501#6 275203501#8 275203501#9 275203501#10 275203501#11 275203501#12 275203501#13 702806635#0 702806635#1"/>
    </vehicle>
    <vehicle id="tram75" type="tram_tram" depart="2250.00">
        <route edges="623793093#0 623793093#1 623793093#3 623793093#4"/>
    </vehicle>
    <vehicle id="tram76" type="tram_tram" depart="2280.00">
        <route edges="324047922#0 324047922#1 324047922#2"/>
    </vehicle>
    <vehicle id="tram77" type="tram_tram" depart="2310.00">
        <route edges="623793085#0 324047922#2"/>
    </vehicle>
    <vehicle id="tram78" type="tram_tram" depart="2340.00">
        <route edges="630350012#2 630350012#4 630350012#5 630350012#7 630350012#8 784891248#0 784891248#1 784891248#2 592037779#0"/>
    </vehicle>
    <vehicle id="tram79" type="tram_tram" depart="2370.00">
        <route edges="696401144#2 696401144#3 275203501#0 275203501#1 275203501#2 275203501#3 275203501#4 275203501#6 275203501#8 275203501#9 275203501#10 275203501#11 275203501#12 275203501#13 702806635#0 702806635#1"/>
    </vehicle>
    <vehicle id="tram80" type="tram_tram" depart="2400.00">
        <route edges="630350013#3 470079884#0 470079884#1 470079884#2 470079884#3 470079884#4 470079884#5 470079884#6 470079884#7 470079884#8 470079884#9 470079884#11 470079884#12 55532878#1 55532878#2 55532878#3 696401143#0 696401143#1 696401143#2 696401143#3 592037802#0 592037802#1 592037802#3 592037802#4"/>
    </vehicle>
    <vehicle id="tram81" type="tram_tram" depart="2430.00">
        <route edges="324047924#0 324047922#1 324047922#2"/>
    </vehicle>
    <vehicle id="tram82" type="tram_tram" depart="2460.00">
        <route edges="470079884#8 470079884#9 470079884#11 470079884#12 55532878#1 55532878#2 55532878#3 696401143#0 592037796#5 592037796#6 592037796#7 470079883#0 470079883#1 470079883#2 596931386#2 596931386#3"/>
    </vehicle>
    <vehicle id="tram83" type="tram_tram" depart="2490.00">
        <route edges="597486560#1 597486560#2 597486560#3 628996581#0 628996581#1 628996581#2 628996581#3 628996581#4 628996581#5 628996581#8 628996581#9 628996581#10 628996581#11 628996581#12 696401143#0 592037796#5 592037796#6 592037796#7 470079883#0 470079883#1 470079883#2 596931386#2 596931386#3 596931386#4 596931386#5 596931386#6 596931386#7 596931386#8 596931386#9"/>
    </vehicle>
    <vehicle id="tram84" type="tram_tram" depart="2520.00">
        <route edges="630350013#3 470079884#0 470079884#1 470079884#2 470079884#3 470079884#4 470079884#5 470079884#6 470079884#7 470079884#8 470079884#9 470079884#11 470079884#12 55532878#1 55532878#2 55532878#3 696401143#0 592037796#5 592037796#6 592037796#7 470079883#0 470079883#1 470079883#2 596931386#2 596931386#3 596931386#4 596931386#5 596931386#6 596931386#7 596931386#8 596931386#9 596931386#10 380176471#0 54724422#0 54724422#2"/>
    </vehicle>
    <vehicle id="tram85" type="tram_tram" depart="2550.00">
        <route edges="784891245#1 784891245#2 784891247#0 784891247#1 784891247#3 784891247#4 784891247#6 784891247#7"/>
    </vehicle>
    <vehicle id="tram86" type="tram_tram" depart="2580.00">
        <route edges="380176471#1 54724422#2"/>
    </vehicle>
    <vehicle id="tram87" type="tram_tram" depart="2610.00">
        <route edges="324047924#0 324047922#1 324047922#2"/>
    </vehicle>
    <vehicle id="tram88" type="tram_tram" depart="2640.00">
        <route edges="208307632#0 208307632#1 623793088 623793090#0 623793090#1 623793090#2 623793090#3 623793090#4 623793086#0 623793086#1 623793086#2 623793086#3 623793091#0 623793091#1 623793091#2 623793091#3 333180123#0 333180123#1 333180123#2 333180123#3 592037809#0 592037809#1 592037809#3 592037809#4 592037809#5 784891244 630350012#1 630350012#2 630350012#4 630350012#5 630350012#7 630350012#8 784891248#0 784891248#1 784891248#2 592037779#0"/>
    </vehicle>
    <vehicle id="tram89" type="tram_tram" depart="2670.00">
        <route edges="623793086#2"/>
    </vehicle>
    <vehicle id="tram90" type="tram_tram" depart="2700.00">
        <route edges="630350013#3 470079884#0 470079884#1 470079884#2 470079884#3 470079884#4 470079884#5 470079884#6 470079884#7 470079884#8 470079884#9 470079884#11 470079884#12 55532878#1 55532878#2 275203501#0 275203501#1 275203501#2 275203501#3 275203501#4 275203501#6 275203501#8 275203501#9 275203501#10 275203501#11 275203501#12 275203501#13 702806635#0 702806635#1"/>
    </vehicle>
    <vehicle id="tram91" type="tram_tram" depart="2730.00">
        <route edges="324047924#0 324047924#1 623793085#1"/>
    </vehicle>
    <vehicle id="tram92" type="tram_tram" depart="2760.00">
        <route edges="592037796#0 592037796#1 592037796#2 592037796#3"/>
    </vehicle>
    <vehicle id="tram93" type="tram_tram" depart="2790.00">
        <route edges="24288480#0 24288480#1 121097571#0 121097571#1 121097571#2 121097571#3 121097571#4 121097571#5 121097571#6 121097571#7 121097571#8 121097571#9"/>
    </vehicle>
    <vehicle id="tram94" type="tram_tram" depart="2820.00">
        <route edges="54724395#8 54724395#9 57836819#0 57836819#1"/>
    </vehicle>
    <vehicle id="tram95" type="tram_tram" depart="2850.00">
        <route edges="380176471#1 54724422#2"/>
    </vehicle>
    <vehicle id="tram96" type="tram_tram" depart="2880.00">
        <route edges="333180124#0 333180124#1 592037802#0 592037802#1 592037802#3 592037802#4 592037796#1 592037796#2 592037796#3 592037796#4 696401143#1 696401143#2"/>
    </vehicle>
    <vehicle id="tram97" type="tram_tram" depart="2910.00">
        <route edges="592037796#0 592037796#1 592037796#2 592037796#3 592037796#4 592037796#5 592037796#6 592037796#7 470079883#0 470079883#1 470079883#2 596931386#2 596931386#3 596931386#4 596931386#5 596931386#6"/>
    </vehicle>
    <vehicle id="tram98" type="tram_tram" depart="2940.00">
        <route edges="208307632#0 208307632#1 623793088 623793090#0 623793090#1 623793090#2 623793090#3 623793090#4 623793086#0 623793086#1 623793086#2 623793086#3 623793091#0 623793091#1 623793091#2 623793091#3 333180123#0 333180123#1 333180123#2 333180123#3 696401144#0 696401144#1 696401144#2 696401144#3 55532878#3 696401143#0 592037796#5 592037796#6 592037796#7 470079883#0 470079883#1 470079883#2 596931386#2 596931386#3 596931386#4 596931386#5 596931386#6 596931386#7 596931386#8 596931386#9 596931386#10 380176471#0 380176471#1"/>
    </vehicle>
    <vehicle id="tram99" type="tram_tram" depart="2970.00">
        <route edges="324047924#0 324047922#1 324047922#2"/>
    </vehicle>
    <vehicle id="tram100" type="tram_tram" depart="3000.00">
        <route edges="592037796#0 592037796#1 592037796#2 592037796#3 592037796#4 592037796#5 592037796#6 592037796#7"/>
    </vehicle>
    <vehicle id="tram101" type="tram_tram" depart="3030.00">
        <route edges="324047924#0 324047924#1 324047924#2 623793089#0 623793089#1 623793089#2 623793089#3"/>
    </vehicle>
    <vehicle id="tram102" type="tram_tram" depart="3060.00">
        <route edges="630350013#3 470079884#0 470079884#1 470079884#2 470079884#3 470079884#4 470079884#5 470079884#6 470079884#7 470079884#8 470079884#9 470079884#11 470079884#12 55532878#1 55532878#2 275203501#0 275203501#1 275203501#2 275203501#3"/>
    </vehicle>
    <vehicle id="tram103" type="tram_tram" depart="3090.00">
        <route edges="24671202#10 784891245#0 784891245#1 784891245#2 784891247#0 784891247#1 784891247#3 784891247#4 784891247#6 784891247#7 784891247#8"/>
    </vehicle>
    <vehicle id="tram104" type="tram_tram" depart="3120.00">