<?xml version="1.0" encoding="UTF-8"?>

<!-- generated on 2026-03-29 18:57:29.108908 by Eclipse SUMO randomTrips.py v1_26_0+0000-fa7df22d7f1
<configuration>
    <net-file value="osm.net.xml.gz"/>
    <output-trip-file value="osm.tram.trips.xml"/>
    <route-file value="osm.tram.rou.xml"/>
    <prefix value="tram"/>
    <vehicle-class value="tram"/>
    <fringe-factor value="20"/>
    <end value="10800.0"/>
    <period value="30.0"/>
</configuration>
-->

<routes xmlns:xsi="http://www.w3.org/2001/XMLSchema-instance" xsi:noNamespaceSchemaLocation="http://sumo.dlr.de/xsd/routes_file.xsd">
    <vType id="tram_tram" vClass="tram"/>
    <trip id="tram0" depart="0.00" from="630350013#3" to="275203501#2" type="tram_tram"/>
    <trip id="tram1" depart="30.00" from="628996581#2" to="592037796#3" type="tram_tram"/>
    <trip id="tram2" depart="60.00" from="592037796#0" to="596931386#10" type="tram_tram"/>
    <trip id="tram3" depart="90.00" from="592037796#3" to="54724422#2" type="tram_tram"/>
    <trip id="tram4" depart="120.00" from="24288480#0" to="121097571#9" type="tram_tram"/>
    <trip id="tram5" depart="150.00" from="784891248#0" to="592037779#0" type="tram_tram"/>
    <trip id="tram6" depart="180.00" from="630350013#3" to="702806635#1" type="tram_tram"/>
    <trip id="tram7" depart="210.00" from="623793086#1" to="592037779#0" type="tram_tram"/>
    <trip id="tram8" depart="240.00" from="623793085#0" to="324047922#2" type="tram_tram"/>
    <trip id="tram9" depart="270.00" from="324047924#0" to="623793089#3" type="tram_tram"/>
    <trip id="tram10" depart="300.00" from="324047922#0" to="324047922#2" type="tram_tram"/>
    <trip id="tram11" depart="330.00" from="623793092" to="326819654#1" type="tram_tram"/>
    <trip id="tram12" depart="360.00" from="470079884#5" to="55532878#2" type="tram_tram"/>
    <trip id="tram13" depart="390.00" from="54724395#1" to="331237099#1" type="tram_tram"/>
    <trip id="tram14" depart="420.00" from="463882512" to="784891247#8" type="tram_tram"/>
    <trip id="tram15" depart="450.00" from="324047922#0" to="324047922#2" type="tram_tram"/>
    <trip id="tram16" depart="480.00" from="470079884#3" to="592037796#6" type="tram_tram"/>
    <trip id="tram17" depart="510.00" from="630350013#3" to="592037779#0" type="tram_tram"/>
    <trip id="tram18" depart="540.00" from="623793090#3" to="702806635#1" type="tram_tram"/>
    <trip id="tram19" depart="570.00" from="470079883#1" to="596931386#6" type="tram_tram"/>
    <trip id="tram20" depart="600.00" from="623793091#1" to="702806635#1" type="tram_tram"/>
    <trip id="tram21" depart="630.00" from="592037796#0" to="54724422#2" type="tram_tram"/>
    <trip id="tram22" depart="660.00" from="597486560#1" to="380176471#1" type="tram_tram"/>
    <trip id="tram23" depart="690.00" from="623793085#0" to="623793089#3" type="tram_tram"/>
    <trip id="tram24" depart="720.00" from="333180124#0" to="54724422#2" type="tram_tram"/>
    <trip id="tram25" depart="750.00" from="630350013#3" to="596931386#4" type="tram_tram"/>
    <trip id="tram26" depart="780.00" from="470079884#8" to="592037796#4" type="tram_tram"/>
    <trip id="tram27" depart="810.00" from="623793093#0" to="623793093#4" type="tram_tram"/>
    <trip id="tram28" depart="840.00" from="54724395#1" to="331237099#1" type="tram_tram"/>
    <trip id="tram29" depart="870.00" from="630350013#3" to="596931386#3" type="tram_tram"/>
    <trip id="tram30" depart="900.00" from="324047922#0" to="623793089#3" type="tram_tram"/>
    <trip id="tram31" depart="930.00" from="208307632#0" to="623793086#3" type="tram_tram"/>
    <trip id="tram32" depart="960.00" from="208307632#0" to="54724422#2" type="tram_tram"/>
    <trip id="tram33" depart="990.00" from="208307632#0" to="592037779#0" type="tram_tram"/>
    <trip id="tram34" depart="1020.00" from="623793085#0" to="324047922#2" type="tram_tram"/>
    <trip id="tram35" depart="1050.00" from="596931386#6" to="596931386#9" type="tram_tram"/>
    <trip id="tram36" depart="1080.00" from="24671202#10" to="784891247#8" type="tram_tram"/>
    <trip id="tram37" depart="1110.00" from="470079884#8" to="54724422#2" type="tram_tram"/>
    <trip id="tram38" depart="1140.00" from="24671202#10" to="784891247#8" type="tram_tram"/>
    <trip id="tram39" depart="1170.00" from="623793094" to="326819654#1" type="tram_tram"/>
    <trip id="tram40" depart="1200.00" from="55492807#8" to="55492807#14" type="tram_tram"/>
    <trip id="tram41" depart="1230.00" from="324047924#0" to="324047922#2" type="tram_tram"/>
    <trip id="tram42" depart="1260.00" from="55492807#12" to="55492807#14" type="tram_tram"/>
    <trip id="tram43" depart="1290.00" from="592037796#0" to="596931386#10" type="tram_tram"/>
    <trip id="tram44" depart="1320.00" from="470079884#6" to="592037779#0" type="tram_tram"/>
    <trip id="tram45" depart="1350.00" from="55492807#8" to="55492807#11" type="tram_tram"/>
    <trip id="tram46" depart="1380.00" from="24671202#10" to="784891247#8" type="tram_tram"/>
    <trip id="tram47" depart="1410.00" from="55492807#8" to="55492807#14" type="tram_tram"/>
    <trip id="tram48" depart="1440.00" from="597486560#1" to="54724422#2" type="tram_tram"/>
    <trip id="tram49" depart="1470.00" from="333180124#0" to="54724422#2" type="tram_tram"/>
    <trip id="tram50" depart="1500.00" from="628996581#9" to="596931386#6" type="tram_tram"/>
    <trip id="tram51" depart="1530.00" from="54724395#1" to="331237099#1" type="tram_tram"/>
    <trip id="tram52" depart="1560.00" from="208307632#0" to="592037809#5" type="tram_tram"/>
    <trip id="tram53" depart="1590.00" from="333180123#3" to="630350012#1" type="tram_tram"/>
    <trip id="tram54" depart="1620.00" from="592037796#0" to="596931386#6" type="tram_tram"/>
    <trip id="tram55" depart="1650.00" from="333180124#0" to="54724422#2" type="tram_tram"/>
    <trip id="tram56" depart="1680.00" from="623793085#0" to="324047922#2" type="tram_tram"/>
    <trip id="tram57" depart="1710.00" from="470079884#11" to="275203501#9" type="tram_tram"/>
    <trip id="tram58" depart="1740.00" from="57836818#0" to="121097571#9" type="tram_tram"/>
    <trip id="tram59" depart="1770.00" from="623793088" to="702806635#1" type="tram_tram"/>
    <trip id="tram60" depart="1800.00" from="55492807#11" to="55492807#14" type="tram_tram"/>
    <trip id="tram61" depart="1830.00" from="630350013#3" to="275203501#0" type="tram_tram"/>
    <trip id="tram62" depart="1860.00" from="55492807#8" to="55492807#14" type="tram_tram"/>
    <trip id="tram63" depart="1890.00" from="470079884#12" to="275203501#8" type="tram_tram"/>
    <trip id="tram64" depart="1920.00" from="696401144#1" to="702806635#0" type="tram_tram"/>
    <trip id="tram65" depart="1950.00" from="470079884#3" to="470079884#6" type="tram_tram"/>
    <trip id="tram66" depart="1980.00" from="623793086#0" to="592037779#0" type="tram_tram"/>
    <trip id="tram67" depart="2010.00" from="24288480#0" to="121097571#9" type="tram_tram"/>
    <trip id="tram68" depart="2040.00" from="623793085#0" to="324047922#2" type="tram_tram"/>
    <trip id="tram69" depart="2070.00" from="324047922#0" to="324047922#2" type="tram_tram"/>
    <trip id="tram70" depart="2100.00" from="597486560#1" to="696401143#3" type="tram_tram"/>
    <trip id="tram71" depart="2130.00" from="208307632#1" to="702806635#1" type="tram_tram"/>
    <trip id="tram72" depart="2160.00" from="628996581#10" to="596931386#4" type="tram_tram"/>
    <trip id="tram73" depart="2190.00" from="333180123#1" to="54724422#2" type="tram_tram"/>
    <trip id="tram74" depart="2220.00" from="630350013#3" to="702806635#1" type="tram_tram"/>
    <trip id="tram75" depart="2250.00" from="623793093#0" to="623793093#4" type="tram_tram"/>
    <trip id="tram76" depart="2280.00" from="324047922#0" to="324047922#2" type="tram_tram"/>
    <trip id="tram77" depart="2310.00" from="623793085#0" to="324047922#2" type="tram_tram"/>
    <trip id="tram78" depart="2340.00" from="630350012#2" to="592037779#0" type="tram_tram"/>
    <trip id="tram79" depart="2370.00" from="696401144#2" to="702806635#1" type="tram_tram"/>
    <trip id="tram80" depart="2400.00" from="630350013#3" to="592037802#4" type="tram_tram"/>
    <trip id="tram81" depart="2430.00" from="324047924#0" to="324047922#2" type="tram_tram"/>
    <trip id="tram82" depart="2460.00" from="470079884#8" to="596931386#3" type="tram_tram"/>
    <trip id="tram83" depart="2490.00" from="597486560#1" to="596931386#9" type="tram_tram"/>
    <trip id="tram84" depart="2520.00" from="630350013#3" to="54724422#2" type="tram_tram"/>
    <trip id="tram85" depart="2550.00" from="784891245#1" to="784891247#7" type="tram_tram"/>
    <trip id="tram86" depart="2580.00" from="380176471#1" to="54724422#2" type="tram_tram"/>
    <trip id="tram87" depart="2610.00" from="324047924#0" to="324047922#2" type="tram_tram"/>
    <trip id="tram88" depart="2640.00" from="208307632#0" to="592037779#0" type="tram_tram"/>
    <trip id="tram89" depart="2670.00" from="623793086#2" to="623793086#2" type="tram_tram"/>
    <trip id="tram90" depart="2700.00" from="630350013#3" to="702806635#1" type="tram_tram"/>
    <trip id="tram91" depart="2730.00" from="324047924#0" to="623793085#1" type="tram_tram"/>
    <trip id="tram92" depart="2760.00" from="592037796#0" to="592037796#3" type="tram_tram"/>
    <trip id="tram93" depart="2790.00" from="24288480#0" to="121097571#9" type="tram_tram"/>
    <trip id="tram94" depart="2820.00" from="54724395#8" to="57836819#1" type="tram_tram"/>
    <trip id="tram95" depart="2850.00" from="380176471#1" to="54724422#2" type="tram_tram"/>
    <trip id="tram96" depart="2880.00" from="333180124#0" to="696401143#2" type="tram_tram"/>
    <trip id="tram97" depart="2910.00" from="592037796#0" to="596931386#6" type="tram_tram"/>
    <trip id="tram98" depart="2940.00" from="208307632#0" to="380176471#1" type="tram_tram"/>
    <trip id="tram99" depart="2970.00" from="324047924#0" to="324047922#2" type="tram_tram"/>
    <trip id="tram100" depart="3000.00" from="592037796#0" to="592037796#7" type="tram_tram"/>
    <trip id="tram101" depart="3030.00" from="324047924#0" to="623793089#3" type="tram_tram"/>
    <trip id="tram102" depart="3060.00" from="630350013#3" to="275203501#3" type="tram_tram"/>
    <trip id="tram103" depart="3090.00" from="24671202#10" to="784891247#8" type="tram_tram"/>
    <trip id="tram104" depart="3120.00" from="493763993" to="326819654#1" type="tram_tram"/>
    <trip id="tram105" depart="3150.00" from="623793090#0" to="592037779#0" type="tram_tram"/>
    <trip id="tram106" depart="3180.00" from="470079884#12" to="592037779#0" type="tram_tram"/>
    <trip id="tram107" depart="3210.00" from="592037809#1" to="592037779#0" type="tram_tram"/>
    <trip id="tram108" depart="3240.00" from="333180124#0" to="696401143#2" type="tram_tram"/>
    <trip id="tram109" depart="3270.00" from="597486560#1" to="470079883#1" type="tram_tram"/>
    <trip id="tram110" depart="3300.00" from="324047924#0" to="623793089#3" type="tram_tram"/>
    <trip id="tram111" depart="3330.00" from="54724395#6" to="57836819#1" type="tram_tram"/>
    <trip id="tram112" depart="3360.00" from="24671202#10" to="784891247#8" type="tram_tram"/>
    <trip id="tram113" depart="3390.00" from="630350013#3" to="54724422#2" type="tram_tram"/>
    <trip id="tram114" depart="3420.00" from="470079884#11" to="592037779#0" type="tram_tram"/>
    <trip id="tram115" depart="3450.00" from="324047922#0" to="324047922#2" type="tram_tram"/>
    <trip id="tram116" depart="3480.00" from="324046094#0" to="623793092" type="tram_tram"/>
    <trip id="tram117" depart="3510.00" from="24288480#0" to="121097571#9" type="tram_tram"/>
    <trip id="tram118" depart="3540.00" from="470079884#1" to="702806635#1" type="tram_tram"/>
    <trip id="tram119" depart="3570.00" from="592037802#1" to="596931386#4" type="tram_tram"/>
    <trip id="tram120" depart="3600.00" from="54724395#1" to="57836819#1" type="tram_tram"/>
    <trip id="tram121" depart="3630.00" from="592037809#1" to="630350012#5" type="tram_tram"/>
    <trip id="tram122" depart="3660.00" from="55532878#2" to="702806635#1" type="tram_tram"/>
    <trip id="tram123" depart="3690.00" from="630350013#3" to="592037779#0" type="tram_tram"/>
    <trip id="tram124" depart="3720.00" from="597486560#1" to="54724422#2" type="tram_tram"/>
    <trip id="tram125" depart="3750.00" from="54724395#1" to="54724395#5" type="tram_tram"/>
    <trip id="tram126" depart="3780.00" from="623793090#4" to="623793091#1" type="tram_tram"/>
    <trip id="tram127" depart="3810.00" from="324047924#0" to="324047922#2" type="tram_tram"/>
    <trip id="tram128" depart="3840.00" from="333180124#1" to="54724422#2" type="tram_tram"/>
    <trip id="tram129" depart="3870.00" from="333180124#0" to="54724422#2" type="tram_tram"/>
    <trip id="tram130" depart="3900.00" from="54724395#5" to="57836819#1" type="tram_tram"/>
    <trip id="tram131" depart="3930.00" from="24671202#10" to="784891247#3" type="tram_tram"/>
    <trip id="tram132" depart="3960.00" from="324046094#0" to="326819654#1" type="tram_tram"/>
    <trip id="tram133" depart="3990.00" from="333180124#0" to="596931386#3" type="tram_tram"/>
    <trip id="tram134" depart="4020.00" from="784891248#2" to="592037779#0" type="tram_tram"/>
    <trip id="tram135" depart="4050.00" from="54724395#1" to="57836819#1" type="tram_tram"/>
    <trip id="tram136" depart="4080.00" from="24288480#0" to="121097571#9" type="tram_tram"/>
    <trip id="tram137" depart="4110.00" from="623793093#0" to="623793093#4" type="tram_tram"/>
    <trip id="tram138" depart="4140.00" from="597486560#1" to="597486560#3" type="tram_tram"/>
    <trip id="tram139" depart="4170.00" from="333180123#0" to="592037779#0" type="tram_tram"/>
    <trip id="tram140" depart="4200.00" from="623793085#0" to="623793089#3" type="tram_tram"/>
    <trip id="tram141" depart="4230.00" from="324047922#0" to="623793089#3" type="tram_tram"/>
    <trip id="tram142" depart="4260.00" from="324047922#0" to="623793089#3" type="tram_tram"/>
    <trip id="tram143" depart="4290.00" from="623793085#0" to="324047922#2" type="tram_tram"/>
    <trip id="tram144" depart="4320.00" from="597486560#1" to="596931386#9" type="tram_tram"/>
    <trip id="tram145" depart="4350.00" from="463882512" to="784891247#8" type="tram_tram"/>
    <trip id="tram146" depart="4380.00" from="54724395#9" to="57836819#1" type="tram_tram"/>
    <trip id="tram147" depart="4410.00" from="623793085#0" to="324047922#2" type="tram_tram"/>
    <trip id="tram148" depart="4440.00" from="470079884#3" to="470079883#2" type="tram_tram"/>
    <trip id="tram149" depart="4470.00" from="333180124#0" to="596931386#7" type="tram_tram"/>
    <trip id="tram150" depart="4500.00" from="597486560#1" to="54724422#2" type="tram_tram"/>
    <trip id="tram151" depart="4530.00" from="597486560#3" to="470079883#1" type="tram_tram"/>
    <trip id="tram152" depart="4560.00" from="592037796#0" to="592037796#5" type="tram_tram"/>
    <trip id="tram153" depart="4590.00" from="333180124#0" to="54724422#2" type="tram_tram"/>
    <trip id="tram154" depart="4620.00" from="208307632#1" to="784891248#1" type="tram_tram"/>
    <trip id="tram155" depart="4650.00" from="55532878#1" to="592037779#0" type="tram_tram"/>
    <trip id="tram156" depart="4680.00" from="324047922#0" to="324047922#2" type="tram_tram"/>
    <trip id="tram157" depart="4710.00" from="208307632#0" to="592037796#7" type="tram_tram"/>
    <trip id="tram158" depart="4740.00" from="333180124#0" to="470079883#1" type="tram_tram"/>
    <trip id="tram159" depart="4770.00" from="630350013#3" to="275203501#6" type="tram_tram"/>
    <trip id="tram160" depart="4800.00" from="333180124#0" to="54724422#2" type="tram_tram"/>
    <trip id="tram161" depart="4830.00" from="784891247#0" to="784891247#8" type="tram_tram"/>
    <trip id="tram162" depart="4860.00" from="333834894#7" to="333834894#9" type="tram_tram"/>
    <trip id="tram163" depart="4890.00" from="55492807#12" to="55492807#14" type="tram_tram"/>
    <trip id="tram164" depart="4920.00" from="784153624#9" to="784153624#13" type="tram_tram"/>
    <trip id="tram165" depart="4950.00" from="333180123#3" to="592037779#0" type="tram_tram"/>
    <trip id="tram166" depart="4980.00" from="57836818#0" to="121097571#9" type="tram_tram"/>
    <trip id="tram167" depart="5010.00" from="324047924#1" to="324047922#2" type="tram_tram"/>
    <trip id="tram168" depart="5040.00" from="623793093#0" to="623793093#4" type="tram_tram"/>
    <trip id="tram169" depart="5070.00" from="623793085#0" to="623793089#3" type="tram_tram"/>
    <trip id="tram170" depart="5100.00" from="333180123#3" to="54724422#2" type="tram_tram"/>
    <trip id="tram171" depart="5130.00" from="57836818#0" to="121097571#3" type="tram_tram"/>
    <trip id="tram172" depart="5160.00" from="592037796#0" to="596931386#10" type="tram_tram"/>
    <trip id="tram173" depart="5190.00" from="630350013#3" to="630350012#5" type="tram_tram"/>
    <trip id="tram174" depart="5220.00" from="623793091#1" to="592037809#1" type="tram_tram"/>
    <trip id="tram175" depart="5250.00" from="470079884#2" to="54724422#2" type="tram_tram"/>
    <trip id="tram176" depart="5280.00" from="208307632#0" to="623793090#4" type="tram_tram"/>
    <trip id="tram177" depart="5310.00" from="208307632#0" to="702806635#1" type="tram_tram"/>
    <trip id="tram178" depart="5340.00" from="592037796#0" to="54724422#2" type="tram_tram"/>
    <trip id="tram179" depart="5370.00" from="630350013#3" to="784891248#0" type="tram_tram"/>
    <trip id="tram180" depart="5400.00" from="784153624#9" to="784153624#13" type="tram_tram"/>
    <trip id="tram181" depart="5430.00" from="597486560#2" to="592037802#0" type="tram_tram"/>
    <trip id="tram182" depart="5460.00" from="54724395#1" to="331237099#1" type="tram_tram"/>
    <trip id="tram183" depart="5490.00" from="630350013#3" to="702806635#1" type="tram_tram"/>
    <trip id="tram184" depart="5520.00" from="208307632#0" to="702806635#1" type="tram_tram"/>
    <trip id="tram185" depart="5550.00" from="470079884#12" to="592037802#1" type="tram_tram"/>
    <trip id="tram186" depart="5580.00" from="54724395#1" to="331237099#1" type="tram_tram"/>
    <trip id="tram187" depart="5610.00" from="54724395#4" to="331237099#0" type="tram_tram"/>
    <trip id="tram188" depart="5640.00" from="696401144#2" to="54724422#2" type="tram_tram"/>
    <trip id="tram189" depart="5670.00" from="470079884#11" to="784891244" type="tram_tram"/>
    <trip id="tram190" depart="5700.00" from="702806635#0" to="702806635#1" type="tram_tram"/>
    <trip id="tram191" depart="5730.00" from="54724395#1" to="57836819#1" type="tram_tram"/>
    <trip id="tram192" depart="5760.00" from="333180123#3" to="702806635#1" type="tram_tram"/>
    <trip id="tram193" depart="5790.00" from="208307632#0" to="696401143#1" type="tram_tram"/>
    <trip id="tram194" depart="5820.00" from="463882512" to="784891247#8" type="tram_tram"/>
    <trip id="tram195" depart="5850.00" from="623793086#2" to="702806635#1" type="tram_tram"/>
    <trip id="tram196" depart="5880.00" from="324046094#0" to="326819654#1" type="tram_tram"/>
    <trip id="tram197" depart="5910.00" from="470079884#8" to="592037779#0" type="tram_tram"/>
    <trip id="tram198" depart="5940.00" from="623793085#0" to="324047922#2" type="tram_tram"/>
    <trip id="tram199" depart="5970.00" from="24288480#0" to="121097571#9" type="tram_tram"/>
    <trip id="tram200" depart="6000.00" from="623793090#2" to="592037779#0" type="tram_tram"/>
    <trip id="tram201" depart="6030.00" from="623793090#3" to="592037779#0" type="tram_tram"/>
    <trip id="tram202" depart="6060.00" from="463882512" to="784891247#8" type="tram_tram"/>
    <trip id="tram203" depart="6090.00" from="696401144#3" to="784891248#0" type="tram_tram"/>
    <trip id="tram204" depart="6120.00" from="630350013#3" to="470079883#1" type="tram_tram"/>
    <trip id="tram205" depart="6150.00" from="333180124#0" to="592037796#6" type="tram_tram"/>
    <trip id="tram206" depart="6180.00" from="333834894#7" to="333834894#9" type="tram_tram"/>
    <trip id="tram207" depart="6210.00" from="630350013#3" to="275203501#1" type="tram_tram"/>
    <trip id="tram208" depart="6240.00" from="24288480#0" to="121097571#8" type="tram_tram"/>
    <trip id="tram209" depart="6270.00" from="623793091#3" to="596931386#3" type="tram_tram"/>
    <trip id="tram210" depart="6300.00" from="493763993" to="326819654#1" type="tram_tram"/>
    <trip id="tram211" depart="6330.00" from="54724395#1" to="54724395#7" type="tram_tram"/>
    <trip id="tram212" depart="6360.00" from="592037796#2" to="54724422#0" type="tram_tram"/>
    <trip id="tram213" depart="6390.00" from="54724395#1" to="57836819#1" type="tram_tram"/>
    <trip id="tram214" depart="6420.00" from="208307632#0" to="592037796#1" type="tram_tram"/>
    <trip id="tram215" depart="6450.00" from="208307632#0" to="592037796#1" type="tram_tram"/>
    <trip id="tram216" depart="6480.00" from="208307632#1" to="333180123#2" type="tram_tram"/>
    <trip id="tram217" depart="6510.00" from="623793085#1" to="623793089#1" type="tram_tram"/>
    <trip id="tram218" depart="6540.00" from="208307632#0" to="592037779#0" type="tram_tram"/>
    <trip id="tram219" depart="6570.00" from="623793085#0" to="623793089#3" type="tram_tram"/>
    <trip id="tram220" depart="6600.00" from="54724395#1" to="331237099#1" type="tram_tram"/>
    <trip id="tram221" depart="6630.00" from="470079884#5" to="54724422#0" type="tram_tram"/>
    <trip id="tram222" depart="6660.00" from="324047924#1" to="623793089#3" type="tram_tram"/>
    <trip id="tram223" depart="6690.00" from="24288480#0" to="121097571#9" type="tram_tram"/>
    <trip id="tram224" depart="6720.00" from="463882512" to="784891247#8" type="tram_tram"/>
    <trip id="tram225" depart="6750.00" from="57836819#0" to="57836819#1" type="tram_tram"/>
    <trip id="tram226" depart="6780.00" from="324047922#0" to="623793089#3" type="tram_tram"/>
    <trip id="tram227" depart="6810.00" from="208307632#0" to="592037809#1" type="tram_tram"/>
    <trip id="tram228" depart="6840.00" from="54724395#8" to="331237099#1" type="tram_tram"/>
    <trip id="tram229" depart="6870.00" from="333180123#2" to="702806635#0" type="tram_tram"/>
    <trip id="tram230" depart="6900.00" from="630350013#3" to="470079884#9" type="tram_tram"/>
    <trip id="tram231" depart="6930.00" from="696401144#1" to="592037796#2" type="tram_tram"/>
    <trip id="tram232" depart="6960.00" from="54724395#1" to="54724395#4" type="tram_tram"/>
    <trip id="tram233" depart="6990.00" from="630350013#3" to="702806635#1" type="tram_tram"/>
    <trip id="tram234" depart="7020.00" from="208307632#0" to="630350012#1" type="tram_tram"/>
    <trip id="tram235" depart="7050.00" from="630350012#7" to="592037779#0" type="tram_tram"/>
    <trip id="tram236" depart="7080.00" from="208307632#0" to="54724422#2" type="tram_tram"/>
    <trip id="tram237" depart="7110.00" from="324047924#0" to="324047922#2" type="tram_tram"/>
    <trip id="tram238" depart="7140.00" from="333180123#2" to="596931386#9" type="tram_tram"/>
    <trip id="tram239" depart="7170.00" from="630350013#3" to="630350012#7" type="tram_tram"/>
    <trip id="tram240" depart="7200.00" from="470079884#1" to="702806635#1" type="tram_tram"/>
    <trip id="tram241" depart="7230.00" from="592037796#0" to="596931386#5" type="tram_tram"/>
    <trip id="tram242" depart="7260.00" from="208307632#0" to="592037779#0" type="tram_tram"/>
    <trip id="tram243" depart="7290.00" from="324046094#0" to="324046094#2" type="tram_tram"/>
    <trip id="tram244" depart="7320.00" from="623793090#4" to="784891248#2" type="tram_tram"/>
    <trip id="tram245" depart="7350.00" from="597486560#1" to="628996581#5" type="tram_tram"/>
    <trip id="tram246" depart="7380.00" from="493763993" to="326819654#1" type="tram_tram"/>
    <trip id="tram247" depart="7410.00" from="324046094#0" to="326819654#1" type="tram_tram"/>
    <trip id="tram248" depart="7440.00" from="630350013#3" to="592037779#0" type="tram_tram"/>
    <trip id="tram249" depart="7470.00" from="333180124#0" to="333180124#1" type="tram_tram"/>
    <trip id="tram250" depart="7500.00" from="592037796#0" to="54724422#2" type="tram_tram"/>
    <trip id="tram251" depart="7530.00" from="630350013#3" to="275203501#11" type="tram_tram"/>
    <trip id="tram252" depart="7560.00" from="470079884#12" to="54724422#2" type="tram_tram"/>
    <trip id="tram253" depart="7590.00" from="324046094#0" to="326819654#1" type="tram_tram"/>
    <trip id="tram254" depart="7620.00" from="333180124#1" to="54724422#2" type="tram_tram"/>
    <trip id="tram255" depart="7650.00" from="597486560#1" to="596931386#10" type="tram_tram"/>
    <trip id="tram256" depart="7680.00" from="597486560#1" to="628996581#8" type="tram_tram"/>
    <trip id="tram257" depart="7710.00" from="630350013#3" to="592037802#4" type="tram_tram"/>
    <trip id="tram258" depart="7740.00" from="470079884#12" to="702806635#1" type="tram_tram"/>
    <trip id="tram259" depart="7770.00" from="208307632#0" to="592037779#0" type="tram_tram"/>
    <trip id="tram260" depart="7800.00" from="597486560#1" to="54724422#2" type="tram_tram"/>
    <trip id="tram261" depart="7830.00" from="54724395#1" to="331237099#1" type="tram_tram"/>
    <trip id="tram262" depart="7860.00" from="333180124#0" to="54724422#2" type="tram_tram"/>
    <trip id="tram263" depart="7890.00" from="57836818#0" to="121097571#9" type="tram_tram"/>
    <trip id="tram264" depart="7920.00" from="208307632#0" to="696401143#3" type="tram_tram"/>
    <trip id="tram265" depart="7950.00" from="208307632#0" to="592037796#5" type="tram_tram"/>
    <trip id="tram266" depart="7980.00" from="208307632#0" to="702806635#1" type="tram_tram"/>
    <trip id="tram267" depart="8010.00" from="463882512" to="784891247#8" type="tram_tram"/>
    <trip id="tram268" depart="8040.00" from="463882512" to="784891247#8" type="tram_tram"/>
    <trip id="tram269" depart="8070.00" from="630350013#3" to="470079884#12" type="tram_tram"/>
    <trip id="tram270" depart="8100.00" from="623793091#0" to="702806635#1" type="tram_tram"/>
    <trip id="tram271" depart="8130.00" from="630350013#3" to="470079883#0" type="tram_tram"/>
    <trip id="tram272" depart="8160.00" from="470079884#11" to="54724422#2" type="tram_tram"/>
    <trip id="tram273" depart="8190.00" from="597486560#1" to="54724422#2" type="tram_tram"/>
    <trip id="tram274" depart="8220.00" from="597486560#3" to="54724422#2" type="tram_tram"/>
    <trip id="tram275" depart="8250.00" from="333180124#0" to="596931386#2" type="tram_tram"/>
    <trip id="tram276" depart="8280.00" from="208307632#0" to="784891248#1" type="tram_tram"/>
    <trip id="tram277" depart="8310.00" from="54724422#0" to="54724422#2" type="tram_tram"/>
    <trip id="tram278" depart="8340.00" from="470079884#4" to="596931386#3" type="tram_tram"/>
    <trip id="tram279" depart="8370.00" from="275203501#13" to="702806635#0" type="tram_tram"/>
    <trip id="tram280" depart="8400.00" from="493763993" to="326819654#1" type="tram_tram"/>
    <trip id="tram281" depart="8430.00" from="324047924#0" to="623793089#3" type="tram_tram"/>
    <trip id="tram282" depart="8460.00" from="275203501#6" to="702806635#1" type="tram_tram"/>
    <trip id="tram283" depart="8490.00" from="470079884#0" to="275203501#11" type="tram_tram"/>
    <trip id="tram284" depart="8520.00" from="696401144#2" to="275203501#6" type="tram_tram"/>
    <trip id="tram285" depart="8550.00" from="333180124#0" to="54724422#2" type="tram_tram"/>
    <trip id="tram286" depart="8580.00" from="470079884#7" to="592037779#0" type="tram_tram"/>
    <trip id="tram287" depart="8610.00" from="333180124#0" to="596931386#10" type="tram_tram"/>
    <trip id="tram288" depart="8640.00" from="208307632#0" to="596931386#8" type="tram_tram"/>
    <trip id="tram289" depart="8670.00" from="623793090#4" to="784891248#2" type="tram_tram"/>
    <trip id="tram290" depart="8700.00" from="597486560#1" to="596931386#4" type="tram_tram"/>
    <trip id="tram291" depart="8730.00" from="630350013#3" to="592037779#0" type="tram_tram"/>
    <trip id="tram292" depart="8760.00" from="597486560#1" to="470079883#0" type="tram_tram"/>
    <trip id="tram293" depart="8790.00" from="275203501#13" to="702806635#1" type="tram_tram"/>
    <trip id="tram294" depart="8820.00" from="592037796#5" to="380176471#0" type="tram_tram"/>
    <trip id="tram295" depart="8850.00" from="630350013#3" to="470079883#2" type="tram_tram"/>
    <trip id="tram296" depart="8880.00" from="592037796#0" to="380176471#0" type="tram_tram"/>
    <trip id="tram297" depart="8910.00" from="208307632#0" to="55532878#6" type="tram_tram"/>
    <trip id="tram298" depart="8940.00" from="470079884#1" to="596931386#6" type="tram_tram"/>
    <trip id="tram299" depart="8970.00" from="324047922#1" to="623793089#3" type="tram_tram"/>
    <trip id="tram300" depart="9000.00" from="24288480#0" to="121097571#3" type="tram_tram"/>
    <trip id="tram301" depart="9030.00" from="208307632#0" to="623793090#2" type="tram_tram"/>
    <trip id="tram302" depart="9060.00" from="55492807#8" to="55492807#14" type="tram_tram"/>
    <trip id="tram303" depart="9090.00" from="784891247#0" to="784891247#8" type="tram_tram"/>
    <trip id="tram304" depart="9120.00" from="623793090#4" to="380176471#0" type="tram_tram"/>
    <trip id="tram305" depart="9150.00" from="623793086#1" to="55532878#3" type="tram_tram"/>
    <trip id="tram306" depart="9180.00" from="623793085#0" to="324047922#2" type="tram_tram"/>
    <trip id="tram307" depart="9210.00" from="630350013#3" to="702806635#1" type="tram_tram"/>
    <trip id="tram308" depart="9240.00" from="333834894#7" to="333834894#9" type="tram_tram"/>
    <trip id="tram309" depart="9270.00" from="623793086#0" to="54724422#2" type="tram_tram"/>
    <trip id="tram310" depart="9300.00" from="696401144#1" to="596931386#10" type="tram_tram"/>