<?xml version="1.0" encoding="UTF-8"?>

<!-- generated on 2026-03-29 19:11:48.254014 by Eclipse SUMO randomTrips.py v1_26_0+0000-fa7df22d7f1
<configuration>
    <net-file value="osm.net.xml.gz"/>
    <output-trip-file value="osm.passenger.trips.xml"/>
    <route-file value="osm.passenger.rou.xml"/>
    <prefix value="car"/>
    <vehicle-class value="passenger"/>
    <fringe-factor value="5"/>
    <end value="10800.0"/>
    <period value="6.0"/>
</configuration>
-->

<routes xmlns:xsi="http://www.w3.org/2001/XMLSchema-instance" xsi:noNamespaceSchemaLocation="http://sumo.dlr.de/xsd/routes_file.xsd">
    <vType id="car_passenger" vClass="passenger"/>
    <trip id="car0" depart="0.00" from="368759363#0" to="-133325791#1" type="car_passenger"/>
    <trip id="car1" depart="6.00" from="129915065" to="1085736098#0" type="car_passenger"/>
    <trip id="car2" depart="12.00" from="485955798" to="411029244" type="car_passenger"/>
    <trip id="car3" depart="18.00" from="620563379#0" to="-292058181" type="car_passenger"/>
    <trip id="car4" depart="24.00" from="235997636#0" to="-16610261" type="car_passenger"/>
    <trip id="car5" depart="30.00" from="1156986397" to="291749682" type="car_passenger"/>
    <trip id="car6" depart="36.00" from="-170000679" to="-8109759" type="car_passenger"/>
    <trip id="car7" depart="42.00" from="385208728" to="301044212" type="car_passenger"/>
    <trip id="car8" depart="48.00" from="115891666#0" to="324061359#1" type="car_passenger"/>
    <trip id="car9" depart="54.00" from="550427733" to="-1091525590" type="car_passenger"/>
    <trip id="car10" depart="60.00" from="549819999#0" to="456678634#0" type="car_passenger"/>
    <trip id="car11" depart="66.00" from="170019194#0" to="-50219635" type="car_passenger"/>
    <trip id="car12" depart="72.00" from="796275450" to="170000678" type="car_passenger"/>
    <trip id="car13" depart="78.00" from="-296659361#1" to="-296659361#1" type="car_passenger"/>
    <trip id="car14" depart="84.00" from="59556908#0" to="32908559" type="car_passenger"/>
    <trip id="car15" depart="90.00" from="549820000#0" to="464551516" type="car_passenger"/>
    <trip id="car16" depart="96.00" from="311254910#1" to="7988642#1" type="car_passenger"/>
    <trip id="car17" depart="102.00" from="171202437#0" to="30853950#3" type="car_passenger"/>
    <trip id="car18" depart="108.00" from="59546331" to="34572878#0" type="car_passenger"/>
    <trip id="car19" depart="114.00" from="598957761" to="32266148" type="car_passenger"/>
    <trip id="car20" depart="120.00" from="463074433" to="-170043629" type="car_passenger"/>
    <trip id="car21" depart="126.00" from="1168961271" to="129384532#0" type="car_passenger"/>
    <trip id="car22" depart="132.00" from="-292058175" to="1103880808#0" type="car_passenger"/>
    <trip id="car23" depart="138.00" from="-296896088#0" to="1257170577#1" type="car_passenger"/>
    <trip id="car24" depart="144.00" from="366806250" to="170019204" type="car_passenger"/>
    <trip id="car25" depart="150.00" from="170212982" to="1029627806" type="car_passenger"/>
    <trip id="car26" depart="156.00" from="1280666596#0" to="689753983" type="car_passenger"/>
    <trip id="car27" depart="162.00" from="385208720" to="33290235" type="car_passenger"/>
    <trip id="car28" depart="168.00" from="-8109759" to="464551516" type="car_passenger"/>
    <trip id="car29" depart="174.00" from="-660887508" to="170104265" type="car_passenger"/>
    <trip id="car30" depart="180.00" from="943527225" to="35967847" type="car_passenger"/>
    <trip id="car31" depart="186.00" from="319285809" to="411078130#0" type="car_passenger"/>
    <trip id="car32" depart="192.00" from="1181724794" to="-170000680" type="car_passenger"/>
    <trip id="car33" depart="198.00" from="15238105#0" to="1212627953#1" type="car_passenger"/>
    <trip id="car34" depart="204.00" from="1133911657" to="725380348#0" type="car_passenger"/>
    <trip id="car35" depart="210.00" from="410658497" to="183583161#0" type="car_passenger"/>
    <trip id="car36" depart="216.00" from="627027226" to="263063853#1" type="car_passenger"/>
    <trip id="car37" depart="222.00" from="126775448#0" to="115868477" type="car_passenger"/>
    <trip id="car38" depart="228.00" from="32266091" to="1208077748#0" type="car_passenger"/>
    <trip id="car39" depart="234.00" from="324227714" to="60616232" type="car_passenger"/>
    <trip id="car40" depart="240.00" from="201007773#0" to="1084897573#1" type="car_passenger"/>
    <trip id="car41" depart="246.00" from="953791874" to="292058178" type="car_passenger"/>
    <trip id="car42" depart="252.00" from="-296659359" to="-170104259" type="car_passenger"/>
    <trip id="car43" depart="258.00" from="-330596253" to="34879397" type="car_passenger"/>
    <trip id="car44" depart="264.00" from="54357173#1" to="220813799#0" type="car_passenger"/>
    <trip id="car45" depart="270.00" from="-252699903#2" to="170104276" type="car_passenger"/>
    <trip id="car46" depart="276.00" from="952945082#0" to="296659368#0" type="car_passenger"/>
    <trip id="car47" depart="282.00" from="8080736" to="59556906#3" type="car_passenger"/>
    <trip id="car48" depart="288.00" from="-115868477" to="463074434#0" type="car_passenger"/>
    <trip id="car49" depart="294.00" from="447597734#0" to="296896088#2" type="car_passenger"/>
    <trip id="car50" depart="300.00" from="1280666594" to="35967848#0" type="car_passenger"/>
    <trip id="car51" depart="306.00" from="-34800652" to="239504436#0" type="car_passenger"/>
    <trip id="car52" depart="312.00" from="600711856" to="1208077755" type="car_passenger"/>
    <trip id="car53" depart="318.00" from="292058182" to="-60616242" type="car_passenger"/>
    <trip id="car54" depart="324.00" from="627027218#1" to="598944885#0" type="car_passenger"/>
    <trip id="car55" depart="330.00" from="143841588" to="35967845#0" type="car_passenger"/>
    <trip id="car56" depart="336.00" from="34800654" to="-50219635" type="car_passenger"/>
    <trip id="car57" depart="342.00" from="498838258" to="299376586#0" type="car_passenger"/>
    <trip id="car58" depart="348.00" from="504026254" to="296659369#0" type="car_passenger"/>
    <trip id="car59" depart="354.00" from="-1011477960" to="151768273" type="car_passenger"/>
    <trip id="car60" depart="360.00" from="-129915058#1" to="687050509" type="car_passenger"/>
    <trip id="car61" depart="366.00" from="603634859" to="549969116" type="car_passenger"/>
    <trip id="car62" depart="372.00" from="1492229431#0" to="-202109189" type="car_passenger"/>
    <trip id="car63" depart="378.00" from="603634858" to="759168046" type="car_passenger"/>
    <trip id="car64" depart="384.00" from="-292058186#3" to="27796190" type="car_passenger"/>
    <trip id="car65" depart="390.00" from="-282211728" to="489635601#0" type="car_passenger"/>
    <trip id="car66" depart="396.00" from="50219635" to="-37546390" type="car_passenger"/>
    <trip id="car67" depart="402.00" from="27796191#0" to="30853950#0" type="car_passenger"/>
    <trip id="car68" depart="408.00" from="126775448#0" to="598944885#3" type="car_passenger"/>
    <trip id="car69" depart="414.00" from="235997637" to="1079580311" type="car_passenger"/>
    <trip id="car70" depart="420.00" from="312722382" to="464551516" type="car_passenger"/>
    <trip id="car71" depart="426.00" from="1103880810" to="1432084980#1" type="car_passenger"/>
    <trip id="car72" depart="432.00" from="952945080#1" to="368759363#0" type="car_passenger"/>
    <trip id="car73" depart="438.00" from="24301663" to="293201850" type="car_passenger"/>
    <trip id="car74" depart="444.00" from="-422097018" to="1088265904" type="car_passenger"/>
    <trip id="car75" depart="450.00" from="170000695#0" to="324061358" type="car_passenger"/>
    <trip id="car76" depart="456.00" from="1181724795" to="1084897573#2" type="car_passenger"/>
    <trip id="car77" depart="462.00" from="-286707429#2" to="35049499#1" type="car_passenger"/>
    <trip id="car78" depart="468.00" from="1181724794" to="620563382" type="car_passenger"/>
    <trip id="car79" depart="474.00" from="598944885#1" to="-27533472" type="car_passenger"/>
    <trip id="car80" depart="480.00" from="1212627952" to="410658512" type="car_passenger"/>
    <trip id="car81" depart="486.00" from="1147450677#0" to="-385208728" type="car_passenger"/>
    <trip id="car82" depart="492.00" from="753573639" to="319285808#1" type="car_passenger"/>
    <trip id="car83" depart="498.00" from="549820000#0" to="-759336243#0" type="car_passenger"/>
    <trip id="car84" depart="504.00" from="-296659370" to="235997648#0" type="car_passenger"/>
    <trip id="car85" depart="510.00" from="235997637" to="264863287#1" type="car_passenger"/>
    <trip id="car86" depart="516.00" from="481398525" to="411029240#0" type="car_passenger"/>
    <trip id="car87" depart="522.00" from="915062437#1" to="-296659365" type="car_passenger"/>
    <trip id="car88" depart="528.00" from="598957761" to="115891666#2" type="car_passenger"/>
    <trip id="car89" depart="534.00" from="1084897572#1" to="24305505" type="car_passenger"/>
    <trip id="car90" depart="540.00" from="235997636#0" to="126612905" type="car_passenger"/>
    <trip id="car91" depart="546.00" from="1245089847" to="640252587" type="car_passenger"/>
    <trip id="car92" depart="552.00" from="24901599" to="59556907#0" type="car_passenger"/>
    <trip id="car93" depart="558.00" from="31563960" to="-171202438#2" type="car_passenger"/>
    <trip id="car94" depart="564.00" from="95842194#1" to="552840022#0" type="car_passenger"/>
    <trip id="car95" depart="570.00" from="7988696#0" to="667866521" type="car_passenger"/>
    <trip id="car96" depart="576.00" from="59556908#0" to="-551455122" type="car_passenger"/>
    <trip id="car97" depart="582.00" from="288069964#0" to="108355626#1" type="car_passenger"/>
    <trip id="car98" depart="588.00" from="171202437#0" to="915062442" type="car_passenger"/>
    <trip id="car99" depart="594.00" from="126775448#0" to="50219642#0" type="car_passenger"/>
    <trip id="car100" depart="600.00" from="264534309#0" to="220813799#1" type="car_passenger"/>
    <trip id="car101" depart="606.00" from="796275450" to="952945080#1" type="car_passenger"/>
    <trip id="car102" depart="612.00" from="319285808#3" to="462184879" type="car_passenger"/>
    <trip id="car103" depart="618.00" from="-60616212#0" to="1322111544" type="car_passenger"/>
    <trip id="car104" depart="624.00" from="7988645" to="324045992#0" type="car_passenger"/>
    <trip id="car105" depart="630.00" from="315630016#3" to="481398535" type="car_passenger"/>
    <trip id="car106" depart="636.00" from="-24301478" to="324061352" type="car_passenger"/>
    <trip id="car107" depart="642.00" from="292058187#0" to="59546331" type="car_passenger"/>
    <trip id="car108" depart="648.00" from="-60616212#2" to="791153426" type="car_passenger"/>
    <trip id="car109" depart="654.00" from="-292058177" to="-660881710#1" type="car_passenger"/>
    <trip id="car110" depart="660.00" from="33183107" to="411029243#0" type="car_passenger"/>
    <trip id="car111" depart="666.00" from="1208077748#0" to="-34800652" type="car_passenger"/>
    <trip id="car112" depart="672.00" from="619706215" to="1156986397" type="car_passenger"/>
    <trip id="car113" depart="678.00" from="330596253" to="34800652" type="car_passenger"/>
    <trip id="car114" depart="684.00" from="220813799#1" to="324046003#0" type="car_passenger"/>
    <trip id="car115" depart="690.00" from="296896088#0" to="689753983" type="car_passenger"/>
    <trip id="car116" depart="696.00" from="1133257422#1" to="462184879" type="car_passenger"/>
    <trip id="car117" depart="702.00" from="1212627952" to="187285126" type="car_passenger"/>
    <trip id="car118" depart="708.00" from="411047571" to="133325790#0" type="car_passenger"/>
    <trip id="car119" depart="714.00" from="15238105#2" to="485955799#0" type="car_passenger"/>
    <trip id="car120" depart="720.00" from="-288069924" to="263063853#1" type="car_passenger"/>
    <trip id="car121" depart="726.00" from="95842194#0" to="952945082#0" type="car_passenger"/>
    <trip id="car122" depart="732.00" from="-288069930" to="1082922727" type="car_passenger"/>
    <trip id="car123" depart="738.00" from="126775448#0" to="687050509" type="car_passenger"/>
    <trip id="car124" depart="744.00" from="60616212#1" to="599334746" type="car_passenger"/>
    <trip id="car125" depart="750.00" from="170212982" to="-50219639#2" type="car_passenger"/>
    <trip id="car126" depart="756.00" from="59552711" to="456678982#0" type="car_passenger"/>
    <trip id="car127" depart="762.00" from="34800660#2" to="915062449" type="car_passenger"/>
    <trip id="car128" depart="768.00" from="410658493" to="-1091525591" type="car_passenger"/>
    <trip id="car129" depart="774.00" from="552840035" to="1327330690" type="car_passenger"/>
    <trip id="car130" depart="780.00" from="411029240#0" to="689753983" type="car_passenger"/>
    <trip id="car131" depart="786.00" from="-482241562" to="-329388956" type="car_passenger"/>
    <trip id="car132" depart="792.00" from="-31563959" to="311254910#1" type="car_passenger"/>
    <trip id="car133" depart="798.00" from="129915065" to="32932489#1" type="car_passenger"/>
    <trip id="car134" depart="804.00" from="360177728" to="1211205542" type="car_passenger"/>
    <trip id="car135" depart="810.00" from="288179988#0" to="620563382" type="car_passenger"/>
    <trip id="car136" depart="816.00" from="59556908#0" to="-294796354" type="car_passenger"/>
    <trip id="car137" depart="822.00" from="485955803" to="30853950#3" type="car_passenger"/>
    <trip id="car138" depart="828.00" from="240381587#1" to="-1133257414#1" type="car_passenger"/>
    <trip id="car139" depart="834.00" from="-288179987" to="600316244" type="car_passenger"/>
    <trip id="car140" depart="840.00" from="625093160#0" to="301322407#0" type="car_passenger"/>
    <trip id="car141" depart="846.00" from="59552742" to="324046001" type="car_passenger"/>
    <trip id="car142" depart="852.00" from="-551455122" to="-37546390" type="car_passenger"/>
    <trip id="car143" depart="858.00" from="1492229431#0" to="60616242" type="car_passenger"/>
    <trip id="car144" depart="864.00" from="548862183" to="59556906#3" type="car_passenger"/>
    <trip id="car145" depart="870.00" from="625060015" to="1031465512#1" type="car_passenger"/>
    <trip id="car146" depart="876.00" from="1245089847" to="-296659375" type="car_passenger"/>
    <trip id="car147" depart="882.00" from="51138782#2" to="600316248" type="car_passenger"/>
    <trip id="car148" depart="888.00" from="202087356#1" to="34800657#0" type="car_passenger"/>
    <trip id="car149" depart="894.00" from="-600711856" to="687050509" type="car_passenger"/>
    <trip id="car150" depart="900.00" from="599334739" to="8049704#0" type="car_passenger"/>
    <trip id="car151" depart="906.00" from="551455119" to="599485294" type="car_passenger"/>
    <trip id="car152" depart="912.00" from="-16064694#1" to="464621655#0" type="car_passenger"/>
    <trip id="car153" depart="918.00" from="170000687" to="687050509" type="car_passenger"/>
    <trip id="car154" depart="924.00" from="548883607" to="59716282" type="car_passenger"/>
    <trip id="car155" depart="930.00" from="551455119" to="1212627953#0" type="car_passenger"/>
    <trip id="car156" depart="936.00" from="538081341#0" to="-315630017#1" type="car_passenger"/>
    <trip id="car157" depart="942.00" from="600316248" to="59556906#1" type="car_passenger"/>
    <trip id="car158" depart="948.00" from="115891667#0" to="548862172" type="car_passenger"/>
    <trip id="car159" depart="954.00" from="26539742" to="1354366253#1" type="car_passenger"/>
    <trip id="car160" depart="960.00" from="548862182#0" to="1088265904" type="car_passenger"/>
    <trip id="car161" depart="966.00" from="-16064694#0" to="-759336243#0" type="car_passenger"/>
    <trip id="car162" depart="972.00" from="170000680" to="59716282" type="car_passenger"/>
    <trip id="car163" depart="978.00" from="7988642#1" to="126612905" type="car_passenger"/>
    <trip id="car164" depart="984.00" from="37334808" to="187641732#0" type="car_passenger"/>
    <trip id="car165" depart="990.00" from="894039050" to="296896088#1" type="car_passenger"/>
    <trip id="car166" depart="996.00" from="759336243#0" to="-329388956" type="car_passenger"/>
    <trip id="car167" depart="1002.00" from="8049704#0" to="-60616242" type="car_passenger"/>
    <trip id="car168" depart="1008.00" from="7988531" to="1212627952" type="car_passenger"/>
    <trip id="car169" depart="1014.00" from="-32932489#1" to="239504436#0" type="car_passenger"/>
    <trip id="car170" depart="1020.00" from="481230982#0" to="1433747782" type="car_passenger"/>
    <trip id="car171" depart="1026.00" from="34572676" to="292058180" type="car_passenger"/>
    <trip id="car172" depart="1032.00" from="183184922" to="32266118#0" type="car_passenger"/>
    <trip id="car173" depart="1038.00" from="126612909" to="459668281#0" type="car_passenger"/>
    <trip id="car174" depart="1044.00" from="-1015089614" to="667866521" type="car_passenger"/>
    <trip id="car175" depart="1050.00" from="311740485" to="463074433" type="car_passenger"/>
    <trip id="car176" depart="1056.00" from="485955804#0" to="410658513" type="car_passenger"/>
    <trip id="car177" depart="1062.00" from="170104263#0" to="-263228460" type="car_passenger"/>
    <trip id="car178" depart="1068.00" from="411029242#0" to="15496003" type="car_passenger"/>
    <trip id="car179" depart="1074.00" from="464556601" to="133325790#0" type="car_passenger"/>
    <trip id="car180" depart="1080.00" from="1492230041" to="202078190" type="car_passenger"/>
    <trip id="car181" depart="1086.00" from="-464551520#2" to="220813798#0" type="car_passenger"/>
    <trip id="car182" depart="1092.00" from="759336243#0" to="411029247#0" type="car_passenger"/>
    <trip id="car183" depart="1098.00" from="625093160#0" to="34572672" type="car_passenger"/>
    <trip id="car184" depart="1104.00" from="-1011477960" to="126775448#0" type="car_passenger"/>
    <trip id="car185" depart="1110.00" from="240381591#1" to="324045993#0" type="car_passenger"/>
    <trip id="car186" depart="1116.00" from="410658496" to="264534310" type="car_passenger"/>
    <trip id="car187" depart="1122.00" from="277760674" to="612407189#0" type="car_passenger"/>
    <trip id="car188" depart="1128.00" from="548862183" to="-600711841" type="car_passenger"/>
    <trip id="car189" depart="1134.00" from="-292058182" to="292058187#0" type="car_passenger"/>
    <trip id="car190" depart="1140.00" from="360177727#0" to="16923057#1" type="car_passenger"/>
    <trip id="car191" depart="1146.00" from="552840037#0" to="482241562" type="car_passenger"/>
    <trip id="car192" depart="1152.00" from="411047573" to="1088265904" type="car_passenger"/>
    <trip id="car193" depart="1158.00" from="1101028767" to="-129915065" type="car_passenger"/>
    <trip id="car194" depart="1164.00" from="1225049792#0" to="27056413" type="car_passenger"/>
    <trip id="car195" depart="1170.00" from="595890171" to="-282211728" type="car_passenger"/>
    <trip id="car196" depart="1176.00" from="212796643" to="34942579" type="car_passenger"/>
    <trip id="car197" depart="1182.00" from="1085736096" to="455480608" type="car_passenger"/>
    <trip id="car198" depart="1188.00" from="292058174" to="1147450681" type="car_passenger"/>
    <trip id="car199" depart="1194.00" from="410658497" to="-108355626#1" type="car_passenger"/>
    <trip id="car200" depart="1200.00" from="489635660#0" to="49681044" type="car_passenger"/>
    <trip id="car201" depart="1206.00" from="-31563951#1" to="227348517#0" type="car_passenger"/>
    <trip id="car202" depart="1212.00" from="1001157893#1" to="772272443" type="car_passenger"/>
    <trip id="car203" depart="1218.00" from="296659369#0" to="-171202438#2" type="car_passenger"/>
    <trip id="car204" depart="1224.00" from="1245089840#1" to="58722665" type="car_passenger"/>
    <trip id="car205" depart="1230.00" from="264534310" to="51850882" type="car_passenger"/>
    <trip id="car206" depart="1236.00" from="411029247#0" to="943452314#0" type="car_passenger"/>
    <trip id="car207" depart="1242.00" from="620557280" to="334864581#0" type="car_passenger"/>
    <trip id="car208" depart="1248.00" from="464556600" to="289800579" type="car_passenger"/>
    <trip id="car209" depart="1254.00" from="623631177" to="481398525" type="car_passenger"/>
    <trip id="car210" depart="1260.00" from="27796191#0" to="1206485900" type="car_passenger"/>
    <trip id="car211" depart="1266.00" from="1245089840#0" to="35967844" type="car_passenger"/>
    <trip id="car212" depart="1272.00" from="50219635" to="296659356" type="car_passenger"/>
    <trip id="car213" depart="1278.00" from="35967844" to="1245089840#0" type="car_passenger"/>
    <trip id="car214" depart="1284.00" from="-292058172" to="126765651#0" type="car_passenger"/>
    <trip id="car215" depart="1290.00" from="129915062" to="1492230041" type="car_passenger"/>
    <trip id="car216" depart="1296.00" from="315630014" to="-463074434#1" type="car_passenger"/>
    <trip id="car217" depart="1302.00" from="1181724796#0" to="455480606" type="car_passenger"/>
    <trip id="car218" depart="1308.00" from="463177305#0" to="-24741755" type="car_passenger"/>
    <trip id="car219" depart="1314.00" from="202109189" to="299376586#0" type="car_passenger"/>
    <trip id="car220" depart="1320.00" from="220798338" to="1015089615" type="car_passenger"/>
    <trip id="car221" depart="1326.00" from="222031054#0" to="620563379#0" type="car_passenger"/>
    <trip id="car222" depart="1332.00" from="324227714" to="455480607#5" type="car_passenger"/>
    <trip id="car223" depart="1338.00" from="598944884#0" to="489635660#0" type="car_passenger"/>
    <trip id="car224" depart="1344.00" from="171721790#0" to="-108355626#1" type="car_passenger"/>
    <trip id="car225" depart="1350.00" from="170019214" to="485955800" type="car_passenger"/>
    <trip id="car226" depart="1356.00" from="220813799#1" to="481398535" type="car_passenger"/>
    <trip id="car227" depart="1362.00" from="31563955" to="328773702#0" type="car_passenger"/>
    <trip id="car228" depart="1368.00" from="115891666#0" to="1084897573#1" type="car_passenger"/>
    <trip id="car229" depart="1374.00" from="24301497#0" to="-16064694#1" type="car_passenger"/>
    <trip id="car230" depart="1380.00" from="170000693" to="411029249" type="car_passenger"/>
    <trip id="car231" depart="1386.00" from="202078190" to="-551455119" type="car_passenger"/>
    <trip id="car232" depart="1392.00" from="27056409" to="-37546390" type="car_passenger"/>
    <trip id="car233" depart="1398.00" from="35049506" to="-15883748" type="car_passenger"/>
    <trip id="car234" depart="1404.00" from="-170000680" to="359888873#0" type="car_passenger"/>
    <trip id="car235" depart="1410.00" from="-49681042#2" to="263228460" type="car_passenger"/>
    <trip id="car236" depart="1416.00" from="-202087356#0" to="170104263#0" type="car_passenger"/>
    <trip id="car237" depart="1422.00" from="1133911657" to="15238105#2" type="car_passenger"/>
    <trip id="car238" depart="1428.00" from="498595603" to="170104263#0" type="car_passenger"/>
    <trip id="car239" depart="1434.00" from="489635663" to="549969116" type="car_passenger"/>
    <trip id="car240" depart="1440.00" from="126612905" to="-292058174" type="car_passenger"/>
    <trip id="car241" depart="1446.00" from="-129915058#1" to="299376586#0" type="car_passenger"/>
    <trip id="car242" depart="1452.00" from="95842194#1" to="170019194#0" type="car_passenger"/>
    <trip id="car243" depart="1458.00" from="402511017" to="50219639#0" type="car_passenger"/>
    <trip id="car244" depart="1464.00" from="410658487" to="485955801" type="car_passenger"/>
    <trip id="car245" depart="1470.00" from="791153426" to="-8109759" type="car_passenger"/>
    <trip id="car246" depart="1476.00" from="-133325791#1" to="-50219635" type="car_passenger"/>
    <trip id="car247" depart="1482.00" from="-464551516" to="410658512" type="car_passenger"/>
    <trip id="car248" depart="1488.00" from="32266118#0" to="1084897572#1" type="car_passenger"/>
    <trip id="car249" depart="1494.00" from="459668281#0" to="489635664" type="car_passenger"/>
    <trip id="car250" depart="1500.00" from="-7988485" to="33183107" type="car_passenger"/>
    <trip id="car251" depart="1506.00" from="489635604#0" to="-329388956" type="car_passenger"/>
    <trip id="car252" depart="1512.00" from="552840037#0" to="7988485" type="car_passenger"/>
    <trip id="car253" depart="1518.00" from="-32932489#1" to="-15391563" type="car_passenger"/>
    <trip id="car254" depart="1524.00" from="7988469" to="187285126" type="car_passenger"/>
    <trip id="car255" depart="1530.00" from="464551516" to="-288069924" type="car_passenger"/>
    <trip id="car256" depart="1536.00" from="456678644#1" to="34879397" type="car_passenger"/>
    <trip id="car257" depart="1542.00" from="-296896088#1" to="49681102" type="car_passenger"/>
    <trip id="car258" depart="1548.00" from="595890171" to="32790772#0" type="car_passenger"/>
    <trip id="car259" depart="1554.00" from="-422097018" to="915062437#1" type="car_passenger"/>
    <trip id="car260" depart="1560.00" from="51850882" to="170000694" type="car_passenger"/>
    <trip id="car261" depart="1566.00" from="240381591#0" to="170043635" type="car_passenger"/>
    <trip id="car262" depart="1572.00" from="293201886" to="170000686#0" type="car_passenger"/>
    <trip id="car263" depart="1578.00" from="595890171" to="548875276#0" type="car_passenger"/>
    <trip id="car264" depart="1584.00" from="-31563951#0" to="791153426" type="car_passenger"/>
    <trip id="car265" depart="1590.00" from="366806250" to="549803494#0" type="car_passenger"/>
    <trip id="car266" depart="1596.00" from="463177309" to="239504436#0" type="car_passenger"/>
    <trip id="car267" depart="1602.00" from="129915058#0" to="541347665#0" type="car_passenger"/>
    <trip id="car268" depart="1608.00" from="311740485" to="27796190" type="car_passenger"/>
    <trip id="car269" depart="1614.00" from="24301497#0" to="464551518#0" type="car_passenger"/>
    <trip id="car270" depart="1620.00" from="59546340" to="-292058180" type="car_passenger"/>
    <trip id="car271" depart="1626.00" from="60616212#2" to="1147450681" type="car_passenger"/>
    <trip id="car272" depart="1632.00" from="27056409" to="33290236" type="car_passenger"/>
    <trip id="car273" depart="1638.00" from="171202437#0" to="-16064694#1" type="car_passenger"/>
    <trip id="car274" depart="1644.00" from="1144471410" to="51138782#0" type="car_passenger"/>
    <trip id="car275" depart="1650.00" from="170019194#0" to="599334747" type="car_passenger"/>
    <trip id="car276" depart="1656.00" from="-1133257414#1" to="759336243#1" type="car_passenger"/>
    <trip id="car277" depart="1662.00" from="-292058186#3" to="463074434#0" type="car_passenger"/>
    <trip id="car278" depart="1668.00" from="288179988#0" to="487063308" type="car_passenger"/>
    <trip id="car279" depart="1674.00" from="456678644#1" to="363390392" type="car_passenger"/>
    <trip id="car280" depart="1680.00" from="288231840" to="503811360" type="car_passenger"/>
    <trip id="car281" depart="1686.00" from="-296659361#1" to="1084897573#4" type="car_passenger"/>
    <trip id="car282" depart="1692.00" from="456678645#0" to="1365930983" type="car_passenger"/>
    <trip id="car283" depart="1698.00" from="324061373" to="27056413" type="car_passenger"/>
    <trip id="car284" depart="1704.00" from="307214695#1" to="235997636#0" type="car_passenger"/>
    <trip id="car285" depart="1710.00" from="489635601#0" to="16064694#1" type="car_passenger"/>
    <trip id="car286" depart="1716.00" from="460847239#0" to="122108659" type="car_passenger"/>
    <trip id="car287" depart="1722.00" from="126612905" to="-34879397" type="car_passenger"/>
    <trip id="car288" depart="1728.00" from="1084897573#2" to="-334864581#2" type="car_passenger"/>
    <trip id="car289" depart="1734.00" from="311254910#1" to="489635604#0" type="car_passenger"/>
    <trip id="car290" depart="1740.00" from="1082922727" to="1084897571#2" type="car_passenger"/>
    <trip id="car291" depart="1746.00" from="288069930" to="464551508#0" type="car_passenger"/>
    <trip id="car292" depart="1752.00" from="894039050" to="296659364" type="car_passenger"/>
    <trip id="car293" depart="1758.00" from="1327330690" to="-296659370" type="car_passenger"/>
    <trip id="car294" depart="1764.00" from="1084897573#4" to="1088265904" type="car_passenger"/>
    <trip id="car295" depart="1770.00" from="1015089615" to="-1257170577#0" type="car_passenger"/>
    <trip id="car296" depart="1776.00" from="30853950#3" to="1245089840#0" type="car_passenger"/>
    <trip id="car297" depart="1782.00" from="835805765" to="311254910#1" type="car_passenger"/>
    <trip id="car298" depart="1788.00" from="458338070" to="-35967844" type="car_passenger"/>
    <trip id="car299" depart="1794.00" from="599334748" to="280989225#0" type="car_passenger"/>
    <trip id="car300" depart="1800.00" from="600711841" to="319285809" type="car_passenger"/>
    <trip id="car301" depart="1806.00" from="27533468#0" to="24300169#4" type="car_passenger"/>
    <trip id="car302" depart="1812.00" from="1079580311" to="-171721790#1" type="car_passenger"/>
    <trip id="car303" depart="1818.00" from="759336243#0" to="27533468#0" type="car_passenger"/>
    <trip id="car304" depart="1824.00" from="58722670" to="191115836" type="car_passenger"/>
    <trip id="car305" depart="1830.00" from="-288179985#1" to="34942579" type="car_passenger"/>
    <trip id="car306" depart="1836.00" from="-202109189" to="-49681042#2" type="car_passenger"/>
    <trip id="car307" depart="1842.00" from="32266091" to="1354366162#1" type="car_passenger"/>
    <trip id="car308" depart="1848.00" from="951416009" to="-330596253" type="car_passenger"/>