<?xml version="1.0" encoding="UTF-8"?>

<!-- generated on 2026-03-29 19:11:48.622249 by Eclipse SUMO randomTrips.py v1_26_0+0000-fa7df22d7f1
<configuration>
    <net-file value="osm.net.xml.gz"/>
    <output-trip-file value="osm.passenger.trips.xml"/>
    <route-file value="osm.passenger.rou.xml"/>
    <prefix value="car"/>
    <vehicle-class value="passenger"/>
    <fringe-factor value="5"/>
    <end value="10800.0"/>
    <period value="6.0"/>
</configuration>
-->

<!-- generated on 2026-03-29T19:11:48.413621+07:00 by Eclipse SUMO duarouter 1.26.0
<duarouterConfiguration xmlns:xsi="http://www.w3.org/2001/XMLSchema-instance" xsi:noNamespaceSchemaLocation="http://sumo.dlr.de/xsd/duarouterConfiguration.xsd">

    <input>
        <net-file value="osm.net.xml.gz"/>
        <route-files value="osm.passenger.trips.xml"/>
    </input>

    <output>
        <output-file value="osm.passenger.rou.xml"/>
        <alternatives-output value="NUL"/>
    </output>

    <time>
        <begin value="0"/>
        <end value="10800.0"/>
    </time>

    <report>
        <no-warnings value="true"/>
        <ignore-errors value="true"/>
        <no-step-log value="true"/>
    </report>

</duarouterConfiguration>
-->

<routes xmlns:xsi="http://www.w3.org/2001/XMLSchema-instance" xsi:noNamespaceSchemaLocation="http://sumo.dlr.de/xsd/routes_file.xsd">
    <vType id="car_passenger" vClass="passenger"/>
    <vehicle id="car0" type="car_passenger" depart="0.00">
        <route edges="368759363#0 368759363#4 1432084982 32266118#0 384916877 200133745#0 549819999#0 50219638 1085736096 -296896087#2 -1091525590 -296896088#2 -296896088#1 -296896088#0 -1091525591 -16610261 -952945080#1 -952945080#0 1049075483 26935501#0 24301663 25925545 220798338 311740485 418580600 34865692#0 1212627953#0 1212627953#1 1212627952 312722382 34800657#0 288069912 170104265 953791874 170104258 34572676 170104263#0 133325791#0 -133325791#1"/>
    </vehicle>
    <vehicle id="car1" type="car_passenger" depart="6.00">
        <route edges="129915065 -220813798#2 170043625#0 552840021#0 455480606 220813799#0 220813799#1 1031465512#1 37337287#0 51138782#0 51138782#2 1168961266 319285808#0 319285808#1 319285808#2 319285808#3 1103880808#0 1168961265#0 240381591#0 240381591#1 460847239#0 328773701#0 548862185 548862184#0 548862179 227348517#0 1156986394 201007773#0 52955389#0 34572878#0 126765639#0 59546341#0 727250790 126765648#0 32790772#0 235997652#0 1085736098#0"/>
    </vehicle>
    <vehicle id="car2" type="car_passenger" depart="12.00">
        <route edges="485955798 625093157#0 262231193#0 17097296 34800660#2 288231838#0 1156986394 201007773#0 52955389#0 34572878#0 126765639#0 59546341#0 727250790 126765648#0 32790772#0 235997652#0 30853950#0 30853950#2 30853950#3 30853950#4 1084897572#1 1084897573#1 1084897573#2 1084897573#4 24301663 25925545 220798338 311740485 418580600 34865692#0 1212627953#0 1212627953#1 1212627952 312722382 24301465#0 170104289#0 315630014 20306526 288069964#0 1206485920 952945082#0 1206485915 34800658 375667879 411029244"/>
    </vehicle>
    <vehicle id="car3" type="car_passenger" depart="18.00">
        <route edges="620563379#0 620563382 464551509#0 10221485#0 464551516 464551520#0 456678634#0 625060015 151724336 170043629 170043635 456678647 170043644#0 1319143452#0 220813798#0 129915058#0 129915062 296659358 288179985#0 296659356 296659359 187285126 296659364 482241562 296659367 296659363#0 33183107 170000691#0 35967848#0 170000688 35967845#0 -170000686#1 -263228460 -170000695#1 -296659365 -288179987 -171721790#1 296659368#0 170000694 292058182 292058180 292058178 292058174 292058186#0 292058188#0 294796354 292058179#0 170000687 292058172 170000693 171722297 170019197 170019194#0 -170019198 -292058181"/>
    </vehicle>
    <vehicle id="car4" type="car_passenger" depart="24.00">
        <route edges="235997636#0 34572878#0 126765639#0 59546341#0 727250790 126765648#0 32790772#0 235997652#0 1085736098#0 1085736096 -296896087#2 -1091525590 -296896088#2 -296896088#1 -296896088#0 -1091525591 -16610261"/>
    </vehicle>
    <vehicle id="car5" type="car_passenger" depart="30.00">
        <route edges="1156986397 280989225#0 485955801 485955800 485955799#0 -548875276#2 -1257170577#1 -1257170577#0 291749682"/>
    </vehicle>
    <vehicle id="car6" type="car_passenger" depart="36.00">
        <route edges="-170000679 -481398528 -202109189 202109189 481398528 170000679 170000680 7988645 292058172 170000693 171722297 170019197 170019194#0 -170019198 -292058181 -170019200 -759168046 -170019201 -7988485 -8109759"/>
    </vehicle>
    <vehicle id="car7" type="car_passenger" depart="42.00">
        <route edges="385208728 60616213 324227713 115868477 324227723 -984815384#1 538081341#0 1133268689 324227718 1133268690#0 788233285 1225049792#0 720100187#0 301044212"/>
    </vehicle>
    <vehicle id="car8" type="car_passenger" depart="48.00">
        <route edges="115891666#0 115891666#2 1208077755 359888871 1133268689 324227718 1133268690#0 788233285 1225049792#0 720100187#0 301044212 324227714 60616227#0 324061359#1"/>
    </vehicle>
    <vehicle id="car9" type="car_passenger" depart="54.00">
        <route edges="550427733 288069928 288069930 551455119 402511017 -422097018 -551455119 -288069930 -551455122 -550427733 -260434412 -411029240#2 410658506#0 498838258 623631173 504026254 411047573-AddedOnRampEdge 411047573 363390392 410658492 334713314 334713313#1 170104270 31857165 445757871 445757872 24901599 573201242 296896077#1 50219636 952945080#1 16610261 1091525591 296896088#0 296896088#1 296896088#2 1091525590 296896087#0 -296896087#2 -1091525590"/>
    </vehicle>
    <vehicle id="car10" type="car_passenger" depart="60.00">
        <route edges="549819999#0 50219638 1085736096 50219642#0 54267810 84596611 1432084980#0 1432084980#1 459668281#0 459668282#0 1101028767 1225049792#0 720100187#0 301044212 324227714 60616227#0 324061359#1 324061358 324061356#0 324061355#0 324061352 385208720 359888873#0 464551518#0 456678634#0"/>
    </vehicle>
    <vehicle id="car11" type="car_passenger" depart="66.00">
        <route edges="170019194#0 -170019194#2 -170019197 -292058175 -170000693 -292058172 -170000687 -292058179#1 -294796354 -292058188#1 -292058186#3 -292058174 -50219613 -292058180 -292058182 170000684 292058187#0 171721790#0 288179987 296659365 170000695#0 263228460 170000686#0 296659366#0 170000689#0 35967847 170043627 687445680 49681042#0 126612909 277760675 126612908#0 126612908#1 60616242 277760674 60616213 324227713 115868477 324227723 -557465797 -1015089615 -49681113 -330596253 -1015089614 -32932489#1 -50219635"/>
    </vehicle>
    <vehicle id="car12" type="car_passenger" depart="72.00">
        <route edges="796275450 170000694 292058182 292058180 292058178 292058174 7988642#0 7988642#1 -170000680 -170000679 -481398528 -202109189 202109189 481398528 170000679 170000680 170000678"/>
    </vehicle>
    <vehicle id="car13" type="car_passenger" depart="78.00">
        <route edges="-296659361#1"/>
    </vehicle>
    <vehicle id="car14" type="car_passenger" depart="84.00">
        <route edges="59556908#0 625093157#0 262231193#0 17097296 34800660#2 288231838#0 548862183 548862182#0 351425727 696236568#0 460847281 548862172 696236572 328773702#0 725380348#0 1208077748#0 240381587#1 725380349#0 457333537#0 470079882 447597734#0 322572316#0 1103880810 129384532#0 129384532#1 1133257422#1 552840022#0 1319143452#0 220813798#0 129915058#0 129915062 296659358 288179985#0 296659356 296659359 187285126 296659364 482241562 296659367 296659363#0 33183107 170000691#0 35967848#0 170000688 32908559"/>
    </vehicle>
    <vehicle id="car15" type="car_passenger" depart="90.00">
        <route edges="549820000#0 235997651#0 15238105#0 15238105#2 126765651#0 301322407#0 549803494#0 59546340 655314176#0 126765636#0 34865699#0 148238504#0 183192595#0 619706215 1079580311 1156986397 280989225#0 485955801 485955800 485955799#0 -548875276#2 -1257170577#1 -1257170577#0 -27533472 26252423#0 17044541#0 59546331 1147450677#0 1280666594 1280666596#0 264863287#0 264863287#1 489635601#0 263228458#0 620557280 489635663 489635664 490433948 620563379#0 620563382 464551509#0 10221485#0 464551516"/>
    </vehicle>
    <vehicle id="car16" type="car_passenger" depart="96.00">
        <route edges="311254910#1 311254910#2 548875282 487063308 17044541#0 59546331 1147450677#0 1280666594 1280666596#0 264863287#0 264863287#1 489635601#0 612407189#0 380858686 374287480#0 463177305#0 359888873#0 464551518#0 456678634#0 625060015 151724336 170043629 170043635 456678647 170043644#0 1319143452#0 220813798#0 129915058#0 129915062 296659358 288179985#0 296659356 296659359 187285126 296659364 482241562 296659367 296659363#0 33183107 170000691#0 35967848#0 170000688 35967845#0 -170000686#1 -263228460 -170000695#1 -296659365 -288179987 -171721790#1 296659368#0 170000694 292058182 292058180 292058178 292058174 7988642#0 7988642#1"/>
    </vehicle>
    <vehicle id="car17" type="car_passenger" depart="102.00">
        <route edges="171202437#0 -170019198 -292058181 -170019200 -759168046 -170019201 -7988485 -8109759 8109759 761045157 170213368 170213369 599334734 599334729 599334746 599334747 599334748 24301648 170104276 410658496 410658493 529164249 363390392 410658492 334713314 334713313#1 170104270 31857165 445757871 445757872 24901599 573201242 263063853#1 598944884#0 598944883 598944885#0 598944885#1 598944885#3 1084897571#1 1084897571#2 1084897571#3 235997651#0 15238105#0 15238105#2 126765651#0 301322407#0 727250790 126765648#0 32790772#0 235997652#0 30853950#0 30853950#2 30853950#3"/>
    </vehicle>
    <vehicle id="car18" type="car_passenger" depart="108.00">
        <route edges="59546331 207233934#3 489635602 59546343#0 1365930983 183184921 27533471#0 263228457#0 27533472 291749682 1257170577#1 548875276#0 17097296 34800660#2 288231838#0 1156986394 201007773#0 52955389#0 34572878#0"/>
    </vehicle>
    <vehicle id="car19" type="car_passenger" depart="114.00">
        <route edges="598957761 50219615 -50219615 7988631 126612905 170000707 7988632 -292058174 -50219613 -292058180 -292058182 170000684 292058187#0 171721790#0 288179987 296659365 170000695#0 263228460 170000686#0 296659366#0 170000689#0 35967847 170043627 687445680 33183112#0 -296659367 -482241562 -296659364 -480882204#1 -296659359 -296659360 -288179985#1 -296659361#1 -296659357 -129915058#1 -220813798#2 170043625#0 552840021#0 455480606 220813799#0 220813799#1 1031465512#1 37337287#0 447597733#0 32266148"/>
    </vehicle>
    <vehicle id="car20" type="car_passenger" depart="120.00">
        <route edges="463074433 463074434#0 -296659361#1 -296659357 -129915058#1 -220813798#2 170043625#0 1319143451#0 -296659370 -296659371 -170043629"/>
    </vehicle>
    <vehicle id="car21" type="car_passenger" depart="126.00">
        <route edges="1168961271 791153428 301044212 324227714 37334808 1103880810 129384532#0"/>
    </vehicle>
    <vehicle id="car22" type="car_passenger" depart="132.00">
        <route edges="-292058175 -170000693 -292058172 -170000687 -292058179#1 -294796354 -292058188#1 -292058186#3 -292058174 -50219613 -292058180 -292058182 170000684 292058187#0 171721790#0 288179987 296659365 170000695#0 263228460 170000686#0 296659366#0 170000689#0 35967847 170043627 687445680 33183112#0 -296659367 -482241562 -296659364 -480882204#1 -296659359 -296659360 -288179985#1 -296659361#1 -296659357 -129915058#1 -220813798#2 170043625#0 552840021#0 455480606 220813799#0 220813799#1 1031465512#1 37337287#0 51138782#0 51138782#2 1168961266 319285808#0 319285808#1 319285808#2 319285808#3 1103880808#0"/>
    </vehicle>
    <vehicle id="car23" type="car_passenger" depart="138.00">
        <route edges="-296896088#0 296896088#0 296896088#1 296896088#2 1091525590 296896087#0 50219639#0 50219639#3 894166783 35049499#0 35049499#1 95842194#0 95842194#1 235997636#0 34865699#0 148238504#0 183192595#0 619706215 1079580311 1156986397 280989225#0 485955801 485955800 485955799#0 -548875276#2 -1257170577#1 1257170577#1"/>
    </vehicle>
    <vehicle id="car24" type="car_passenger" depart="144.00">
        <route edges="366806250 1133257418 1354366253#1 1354366162#1 59716282 915062445 1233530733 915062449 288179985#0 296659356 296659359 187285126 296659364 482241562 296659367 296659363#0 33183107 170000691#0 35967848#0 170000688 35967845#0 -170000686#1 -263228460 -170000695#1 -296659365 -288179987 -171721790#1 296659368#0 170000694 292058182 292058180 292058178 292058174 292058186#0 292058188#0 294796354 292058179#0 170000687 292058172 170000693 171722297 170019197 170019194#0 -170019198 -292058181 -170019200 -759168046 -170019201 -7988485 -8109759 49681102 367911372-AddedOnRampEdge 367911372 49681044 170019204"/>
    </vehicle>
    <vehicle id="car25" type="car_passenger" depart="150.00">
        <route edges="170212982 7988529 170019205 170019214 170019200 292058181 170019198 -170019194#2 -170019197 -292058175 -170000693 -292058172 -170000687 -292058179#1 -294796354 -292058188#1 -292058186#3 -292058174 -50219613 -292058180 -292058182 170000684 292058187#0 171721790#0 288179987 296659365 170000695#0 263228460 170000686#0 296659366#0 170000689#0 35967847 170043627 687445680 33183112#0 -296659367 -482241562 -296659364 -480882204#1 -296659359 -296659360 -288179985#1 -296659361#1 -296659357 -129915058#1 -220813798#2 170043625#0 552840021#0 455480606 220813799#0 220813799#1 1031465512#1 37337287#0 324061359#1 324061358 324061356#0 324061355#0 324061352 385208720 324061353 264534309#0 489635622 264534310 183583161#0 1029627806"/>
    </vehicle>
    <vehicle id="car26" type="car_passenger" depart="156.00">
        <route edges="1280666596#0 264863287#0 264863287#1 489635601#0 612407189#0 380858686 374287480#0 463177305#0 359888873#0 464551518#0 456678634#0 625060015 151724336 170043629 170043635 456678647 170043644#0 1319143452#0 220813798#0 129915058#0 129915062 296659358 288179985#0 296659356 296659359 187285126 296659364 482241562 296659367 296659363#0 33183107 170000691#0 35967848#0 170000688 32908559 -296659375 -35967842 -1011477960 -441733751 -7988548 -288069924 -35967841 -34800652 -31563959 31563956 -34879397 -171202438#2 -315630017#1 -1206485921 -24301478 288069912 170104265 953791874 170104258 34572676 133325790#0 753573639 34572672 20306878 689753983"/>
    </vehicle>
    <vehicle id="car27" type="car_passenger" depart="162.00">
        <route edges="385208720 359888873#0 464551518#0 456678634#0 625060015 151724336 170043629 170043635 456678647 170043644#0 1319143452#0 220813798#0 129915058#0 129915062 296659358 288179985#0 296659356 296659359 187285126 296659364 482241562 296659367 296659363#0 33183107 170000691#0 35967848#0 170000688 35967845#0 -170000686#1 -263228460 -170000695#1 -296659365 -288179987 -171721790#1 296659368#0 170000694 292058182 292058180 292058178 292058174 292058186#0 292058188#0 294796354 292058179#0 170000687 292058172 170000693 171722297 170019197 170019194#0 -171202437#1 -16064694#1 16064694#1 33290235"/>
    </vehicle>
    <vehicle id="car28" type="car_passenger" depart="168.00">
        <route edges="-8109759 8109759 7988485 170019201 759168046 170019200 292058181 170019198 -170019194#2 -170019197 -292058175 -170000693 -292058172 -170000687 -292058179#1 -294796354 -292058188#1 -292058186#3 -292058174 -50219613 -292058180 -292058182 170000684 292058187#0 171721790#0 288179987 296659365 170000695#0 263228460 170000686#0 296659366#0 170000689#0 35967847 170043627 687445680 33183112#0 -296659367 -482241562 -296659364 -480882204#1 -296659359 -296659360 -288179985#1 -296659361#1 -296659357 -129915058#1 -220813798#2 170043625#0 1319143451#0 -296659370 -296659371 -170043629 170043664#0 170043645 464551521 456678983#0 -464551520#2 -464551516 -10221485#2 10221485#0 464551516"/>
    </vehicle>
    <vehicle id="car29" type="car_passenger" depart="174.00">
        <route edges="-660887508 -623882619 -548883608 943536782 943527225 51850882 170019195 170019196 170019199 292058177 8109759 7988485 170019201 759168046 170019200 292058181 170019198 -170019194#2 -170019197 -292058175 -170000693 -292058172 7988696#0 599485294 50219615 -50219615 -15883748 -598957760 -170000680 -170000679 -481398528 -202109189 -293201850 -202087877 -481398522 -286707429#2 -286707429#1 8080736 293201886 -315630017#1 -1206485921 -24301478 288069912 170104265"/>
    </vehicle>
    <vehicle id="car30" type="car_passenger" depart="180.00">
        <route edges="943527225 51850882 170019195 170019196 170019199 292058177 8109759 7988485 170019201 759168046 170019200 292058181 170019198 -170019194#2 -170019197 -292058175 -170000693 -292058172 -170000687 -292058179#1 -294796354 -292058188#1 -292058186#3 -292058174 -50219613 -292058180 -292058182 170000684 292058187#0 171721790#0 288179987 296659365 170000695#0 263228460 170000686#0 296659366#0 170000689#0 35967847"/>
    </vehicle>
    <vehicle id="car31" type="car_passenger" depart="186.00">
        <route edges="319285809 54357166 51138782#2 457333537#0 470079882 447597734#0 322572316#0 1103880810 129384532#0 129384532#1 1133257422#1 552840022#0 1319143452#0 220813798#0 129915058#0 129915062 296659358 288179985#0 296659356 296659359 187285126 296659364 482241562 296659367 296659363#0 33183107 170000691#0 35967848#0 170000688 32908559 -296659375 -35967842 -1011477960 -441733751 -7988548 -288069924 -422097018 -551455119 -288069930 -551455122 -550427733 -260434412 -411029240#2 410658506#0 411047571 623631175 410658497 627560493 410658513 598638820 411078130#0"/>
    </vehicle>
    <vehicle id="car32" type="car_passenger" depart="192.00">
        <route edges="1181724794 207233934#3 489635602 59546343#0 59546331 1147450677#0 1280666594 1280666596#0 264863287#0 264863287#1 489635601#0 612407189#0 380858686 374287480#0 463177305#0 359888873#0 464551518#0 456678634#0 625060015 151724336 170043629 170043635 456678647 170043644#0 1319143452#0 220813798#0 129915058#0 129915062 296659358 288179985#0 296659356 296659359 187285126 296659364 482241562 296659367 296659363#0 33183107 170000691#0 35967848#0 170000688 35967845#0 -170000686#1 -263228460 -170000695#1 -296659365 -288179987 -171721790#1 296659368#0 170000694 292058182 292058180 292058178 292058174 7988642#0 7988642#1 -170000680"/>
    </vehicle>
    <vehicle id="car33" type="car_passenger" depart="198.00">
        <route edges="15238105#0 15238105#2 126765651#0 301322407#0 727250790 126765648#0 32790772#0 235997652#0 30853950#0 30853950#2 30853950#3 30853950#4 1084897572#1 1084897573#1 1084897573#2 1084897573#4 24301663 25925545 220798338 311740485 418580600 34865692#0 1212627953#0 1212627953#1"/>
    </vehicle>
    <vehicle id="car34" type="car_passenger" depart="204.00">
        <route edges="1133911657 549969116 334864581#0 34865692#0 410658512 623631177 410658498 498595603 411029242#0 623631173 504026254 411047573-AddedOnRampEdge 411047573 363390392 410658492 334713314 334713313#1 170104270 31857165 445757871 445757872 24901599 573201242 263063853#1 598944884#0 598944883 598944885#0 598944885#1 598944885#3 1084897571#1 1084897571#2 1084897571#3 235997651#0 15238105#0 15238105#2 126765651#0 301322407#0 549803494#0 59546340 655314176#0 126765636#0 34865699#0 148238504#0 183192595#0 548862183 548862182#0 351425727 696236568#0 460847281 548862172 696236572 328773702#0 725380348#0"/>
    </vehicle>
    <vehicle id="car35" type="car_passenger" depart="210.00">
        <route edges="410658497 627560493 410658513 598638820 411078130#0 410658512 623631177 410658498 498595603 411029242#0 623631173 504026254 411047573-AddedOnRampEdge 411047573 363390392 410658492 334713314 334713313#1 170104270 31857165 445757871 445757872 24901599 573201242 296896077#1 50219636 952945080#1 16610261 1091525591 296896088#0 296896088#1 296896088#2 1091525590 296896087#0 50219642#0 54267810 84596611 1432084980#0 1432084980#1 459668281#0 459668282#0 1101028767 1225049792#0 720100187#0 301044212 324227714 60616227#0 324061359#1 324061358 324061356#0 324061355#0 324061352 385208720 324061353 264534309#0 489635622 264534310 183583161#0"/>
    </vehicle>
    <vehicle id="car36" type="car_passenger" depart="216.00">
        <route edges="627027226 627027224 456678637#0 481230968#0 24300169#2 24300169#4 24300169#5 7988469 108355626#1 640252587 463074433 463074434#0 288231840 1002762812 915062442 1354365632#0 1354365632#1 915062437#0 915062437#1 1133257417 1233530732 465050365#0 793133565#0 459668283#0 368759363#0 368759363#4 1432084982 32266118#0 384916877 200133745#0 549819999#0 50219638 1085736096 -296896087#2 -1091525590 -296896088#2 -296896088#1 -296896088#0 -1091525591 -16610261 -952945080#1 -952945080#0 1049075483 26935501#0 263063853#1"/>
    </vehicle>
    <vehicle id="car37" type="car_passenger" depart="222.00">
        <route edges="126775448#0 384916872#0 894166783 35049499#0 35049499#1 35049506 296910356 35049503#0 54267810 84596611 1432084980#0 1432084980#1 459668281#0 459668282#0 1101028767 59716284#0 538081338 324227715#0 -538081341#4 49681114#0 -1133257414#1 -115868477 -1133257413 324227713 115868477"/>
    </vehicle>
    <vehicle id="car38" type="car_passenger" depart="228.00">
        <route edges="32266091 307214695#0 307214695#1 1085736098#0 1085736096 50219642#0 126775448#0 384916872#0 894166783 35049499#0 35049499#1 95842194#0 95842194#1 235997636#0 34865699#0 148238504#0 183192595#0 548862183 548862182#0 351425727 696236568#0 460847281 548862172 696236572 328773702#0 725380348#0 1208077748#0"/>
    </vehicle>
    <vehicle id="car39" type="car_passenger" depart="234.00">
        <route edges="324227714 60616227#0 447597733#0 32266148 791153426 1168961271 791153428 324045990#0 324227716#0 60616232"/>
    </vehicle>
    <vehicle id="car40" type="car_passenger" depart="240.00">
        <route edges="201007773#0 52955389#0 34572878#0 126765639#0 59546341#0 727250790 126765648#0 32790772#0 235997652#0 30853950#0 30853950#2 30853950#3 30853950#4 1084897572#1 1084897573#1"/>
    </vehicle>
    <vehicle id="car41" type="car_passenger" depart="246.00">
        <route edges="953791874 170104258 34572676 133325790#0 753573639 34572672 24301385 20306606 24301648 170104276 410658496 360177728 360177727#0 375667879 411029238#0 411047570 411029240#0 288069907#0 550427733 288069928 288069930 551455119 402511017 288069924 7988548 441733751 1011477960 35967842 296659375 34234092 -263228460 -170000695#1 -296659365 -288179987 -171721790#1 296659368#0 170000694 292058182 292058180 292058178"/>
    </vehicle>
    <vehicle id="car42" type="car_passenger" depart="252.00">
        <route edges="-296659359 -296659360 -288179985#1 288179985#0 296659356 296659359 187285126 296659364 482241562 296659367 296659363#0 33183107 170000691#0 35967848#0 170000688 32908559 -296659375 -35967842 -1011477960 -441733751 -7988548 -288069924 -35967841 -34800652 -31563959 31563956 -34879397 -171202438#2 -315630017#1 -1206485921 -24301478 288069912 170104265 953791874 170104258 34572676 170104263#0 133325791#0 170104259 600711841 600711846 -170104260 -600711850 -1133370808 -600711856 -34942579 34942579 600711856 600711862 600711850 170104260 -600711846 -600711841 -170104259"/>
    </vehicle>
    <vehicle id="car43" type="car_passenger" depart="258.00">
        <route edges="-330596253 -1015089614 -32932489#1 115891666#0 115891666#2 1208077755 359888871 -538081341#4 49681114#0 -1133257414#1 -115868477 -1133257413 -60616213 -282211728 -60616242 -126612908#1 -126612908#0 -277760675 -126612909 -49681042#2 33183107 170000691#0 35967848#0 170000688 32908559 -296659375 -35967842 -1011477960 -441733751 -7988548 -288069924 -35967841 -34800652 -31563959 31563956 -34879397 -171202438#2 171202438#0 34879397"/>
    </vehicle>
    <vehicle id="car44" type="car_passenger" depart="264.00">
        <route edges="54357173#1 187641732#0 835805765 210015357#0 324046001 324045999#0 463177309 324046003#0 359888873#0 464551518#0 456678634#0 625060015 151724336 170043629 170043635 456678647 170043644#0 552840021#0 455480606 220813799#0"/>
    </vehicle>
    <vehicle id="car45" type="car_passenger" depart="270.00">
        <route edges="-252699903#2 -50219639#2 -296896087#2 -1091525590 -296896088#2 -296896088#1 -296896088#0 -1091525591 -16610261 -952945080#1 -952945080#0 1049075483 26935501#0 24301663 25925545 220798338 311740485 418580600 34865692#0 1212627953#0 1212627953#1 1212627952 312722382 34800657#0 288069912 170104265 953791874 170104258 34572676 133325790#0 753573639 34572672 24301385 20306606 24301648 170104276"/>
    </vehicle>
    <vehicle id="car46" type="car_passenger" depart="276.00">
        <route edges="952945082#0 1206485915 34800658 375667879 411029238#0 411047570 411029240#0 288069907#0 550427733 288069928 288069930 551455119 402511017 288069924 7988548 441733751 1011477960 35967842 296659375 34234092 -263228460 -170000695#1 -296659365 -288179987 -171721790#1 296659368#0"/>
    </vehicle>
    <vehicle id="car47" type="car_passenger" depart="282.00">
        <route edges="8080736 293201886 288069964#0 1206485920 952945082#0 1206485915 34800658 410658487 529164249 363390392 410658492 334713314 334713313#1 170104270 31857165 445757871 445757872 24901599 573201242 263063853#1 598944884#0 598944883 598944885#0 598944885#1 598944885#3 1084897571#1 1084897571#2 1084897571#3 235997651#0 15238105#0 15238105#2 126765651#0 301322407#0 549803494#0 59546340 655314176#0 126765636#0 34865699#0 148238504#0 183192595#0 619706215 1079580311 1156986397 280989225#0 485955801 485955800 485955799#0 485955804#0 485955803 59556907#0 1082922727 161324505#0 59556906#2 59556906#3"/>
    </vehicle>
    <vehicle id="car48" type="car_passenger" depart="288.00">
        <route edges="-115868477 -1133257413 -60616213 -385208728 -60616212#3 -60616212#2 -60616212#1 -60616212#0 -187285144#1 -296659359 -296659360 -288179985#1 -463074434#1 -463074433 463074433 463074434#0"/>
    </vehicle>
    <vehicle id="car49" type="car_passenger" depart="294.00">
        <route edges="447597734#0 51138782#0 51138782#2 1168961266 319285808#0 319285808#1 319285808#2 319285808#3 1103880808#0 1168961265#0 240381591#0 240381591#1 460847239#0 328773701#0 548862185 548862184#0 548862179 227348517#0 1156986394 201007773#0 52955389#0 148233391#0 148233391#2 35049506 296910356 -252699903#2 -50219639#2 -296896087#2 -1091525590 -296896088#2 296896088#2"/>
    </vehicle>
    <vehicle id="car50" type="car_passenger" depart="300.00">
        <route edges="1280666594 1280666596#0 264863287#0 264863287#1 489635601#0 612407189#0 380858686 374287480#0 463177305#0 359888873#0 464551518#0 456678634#0 625060015 151724336 170043629 170043635 456678647 170043644#0 1319143452#0 220813798#0 129915058#0 129915062 296659358 288179985#0 296659356 296659359 187285126 296659364 482241562 296659367 296659363#0 33183107 170000691#0 35967848#0"/>
    </vehicle>
    <vehicle id="car51" type="car_passenger" depart="306.00">
        <route edges="-34800652 34800652 35967841 288069924 7988548 441733751 1011477960 35967842 296659375 288179988#0 296659366#0 170000689#0 35967847 170043627 687445680 33183112#0 -296659367 -482241562 -296659364 -480882204#1 -296659359 -296659360 -288179985#1 -296659361#1 -296659357 -129915058#1 -220813798#2 170043625#0 1319143451#0 -296659370 -296659371 -170043629 170043664#0 170043645 464551521 456678983#0 -464551520#2 -464551516 -10221485#2 489635623#0 239504436#0"/>
    </vehicle>
    <vehicle id="car52" type="car_passenger" depart="312.00">
        <route edges="600711856 600711862 600711850 170104260 24301497#0 34572672 24301385 20306606 24301648 170104276 410658496 360177728 360177727#0 375667879 411029238#0 411047570 411029240#0 288069907#0 550427733 288069928 288069930 551455119 402511017 288069924 7988548 441733751 1011477960 35967842 296659375 288179988#0 296659366#0 170000689#0 35967847 170043627 687445680 49681042#0 126612909 277760675 126612908#0 126612908#1 60616242 277760674 60616213 324227713 115868477 324227723 -557465797 -1015089615 -49681113 -330596253 -1015089614 -32932489#1 115891666#0 115891666#2 1208077755"/>
    </vehicle>
    <vehicle id="car53" type="car_passenger" depart="318.00">
        <route edges="292058182 292058180 292058178 292058174 292058186#0 292058188#0 294796354 263228472#0 599485294 50219615 -50219615 7988631 126612905 170000707 7988632 -292058174 -50219613 -292058180 -292058182 170000684 292058187#0 171721790#0 288179987 296659365 170000695#0 263228460 170000686#0 296659366#0 170000689#0 35967847 170043627 687445680 49681042#0 126612909 277760675 126612908#0 126612908#1 60616242 -60616242"/>
    </vehicle>
    <vehicle id="car54" type="car_passenger" depart="324.00">
        <route edges="627027218#1 627027217 1375659514 464551513#0 625060017#0 464551510#0 489635623#0 239504436#0 1145459040#0 489635660#0 201008967#0 1181724795 1147450681 1181724796#0 1147450680 1181724794 207233934#3 489635602 59546343#0 1365930983 183184921 27533471#0 263228457#0 27533472 291749682 1257170577#1 548875276#0 17097296 34800660#2 288231838#0 1156986394 201007773#0 52955389#0 34572878#0 126765639#0 59546341#0 727250790 126765648#0 32790772#0 235997652#0 30853950#0 30853950#2 30853950#3 30853950#4 1084897572#1 1084897573#1 1084897573#2 598944883 598944885#0"/>
    </vehicle>
    <vehicle id="car55" type="car_passenger" depart="330.00">
        <route edges="143841588 589262812#0 25925545 220798338 311740485 418580600 34865692#0 410658512 623631177 410658498 498595603 411029243#0 411029248#0 411047570 411029240#0 288069907#0 550427733 288069928 288069930 551455119 402511017 288069924 7988548 441733751 1011477960 35967842 296659375 288179988#0 296659366#0 170000689#0 35967848#0 170000688 35967845#0"/>
    </vehicle>
    <vehicle id="car56" type="car_passenger" depart="336.00">