<?xml version="1.0" encoding="UTF-8"?>

<!-- generated on 2026-03-29 19:11:51.621415 by Eclipse SUMO randomTrips.py v1_26_0+0000-fa7df22d7f1
<configuration>
    <net-file value="osm.net.xml.gz"/>
    <output-trip-file value="osm.bus.trips.xml"/>
    <route-file value="osm.bus.rou.xml"/>
    <prefix value="bus"/>
    <vehicle-class value="bus"/>
    <fringe-factor value="20"/>
    <end value="10800.0"/>
    <period value="30.0"/>
</configuration>
-->

<routes xmlns:xsi="http://www.w3.org/2001/XMLSchema-instance" xsi:noNamespaceSchemaLocation="http://sumo.dlr.de/xsd/routes_file.xsd">
    <vType id="bus_bus" vClass="bus"/>
    <trip id="bus0" depart="0.00" from="456678637#0" to="-129915065" type="bus_bus"/>
    <trip id="bus1" depart="30.00" from="1432084980#0" to="-759336243#0" type="bus_bus"/>
    <trip id="bus2" depart="60.00" from="51850996" to="457333537#0" type="bus_bus"/>
    <trip id="bus3" depart="90.00" from="660881710#0" to="-292058179#1" type="bus_bus"/>
    <trip id="bus4" depart="120.00" from="24301663" to="-129915065" type="bus_bus"/>
    <trip id="bus5" depart="150.00" from="126612905" to="286707429#2" type="bus_bus"/>
    <trip id="bus6" depart="180.00" from="-170019196" to="-660881710#1" type="bus_bus"/>
    <trip id="bus7" depart="210.00" from="460847239#0" to="299376586#0" type="bus_bus"/>
    <trip id="bus8" depart="240.00" from="126612909" to="324061358" type="bus_bus"/>
    <trip id="bus9" depart="270.00" from="59556908#0" to="-1133257413" type="bus_bus"/>
    <trip id="bus10" depart="300.00" from="170104260" to="-481398535" type="bus_bus"/>
    <trip id="bus11" depart="330.00" from="7988529" to="15391661#0" type="bus_bus"/>
    <trip id="bus12" depart="360.00" from="-315630017#1" to="-296659365" type="bus_bus"/>
    <trip id="bus13" depart="390.00" from="60616212#0" to="33183112#0" type="bus_bus"/>
    <trip id="bus14" depart="420.00" from="59556907#0" to="481398535" type="bus_bus"/>
    <trip id="bus15" depart="450.00" from="32266091" to="7988469" type="bus_bus"/>
    <trip id="bus16" depart="480.00" from="183184922" to="299376586#0" type="bus_bus"/>
    <trip id="bus17" depart="510.00" from="598944884#0" to="34942578" type="bus_bus"/>
    <trip id="bus18" depart="540.00" from="625060015" to="319285808#3" type="bus_bus"/>
    <trip id="bus19" depart="570.00" from="49681045" to="-170043629" type="bus_bus"/>
    <trip id="bus20" depart="600.00" from="126765650" to="1211205542" type="bus_bus"/>
    <trip id="bus21" depart="630.00" from="-35967841" to="115891666#2" type="bus_bus"/>
    <trip id="bus22" depart="660.00" from="455480606" to="170019204" type="bus_bus"/>
    <trip id="bus23" depart="690.00" from="183184922" to="-759168043" type="bus_bus"/>
    <trip id="bus24" depart="720.00" from="133325790#0" to="689753983" type="bus_bus"/>
    <trip id="bus25" depart="750.00" from="459668281#0" to="34572672" type="bus_bus"/>
    <trip id="bus26" depart="780.00" from="1133268690#0" to="481398535" type="bus_bus"/>
    <trip id="bus27" depart="810.00" from="1085736098#0" to="170043629" type="bus_bus"/>
    <trip id="bus28" depart="840.00" from="915062445" to="384916872#0" type="bus_bus"/>
    <trip id="bus29" depart="870.00" from="324061373" to="462184879" type="bus_bus"/>
    <trip id="bus30" depart="900.00" from="600711846" to="503811360" type="bus_bus"/>
    <trip id="bus31" depart="930.00" from="126765650" to="-15883748" type="bus_bus"/>
    <trip id="bus32" depart="960.00" from="170000686#0" to="1133257418" type="bus_bus"/>
    <trip id="bus33" depart="990.00" from="1219592420" to="689753983" type="bus_bus"/>
    <trip id="bus34" depart="1020.00" from="625093160#0" to="1327330689" type="bus_bus"/>
    <trip id="bus35" depart="1050.00" from="463177310#0" to="171722297" type="bus_bus"/>
    <trip id="bus36" depart="1080.00" from="759168046" to="263228458#0" type="bus_bus"/>
    <trip id="bus37" depart="1110.00" from="1322111544" to="1085736096" type="bus_bus"/>
    <trip id="bus38" depart="1140.00" from="324227718" to="1088265904" type="bus_bus"/>
    <trip id="bus39" depart="1170.00" from="34942578" to="623631177" type="bus_bus"/>
    <trip id="bus40" depart="1200.00" from="20306526" to="-759336243#0" type="bus_bus"/>
    <trip id="bus41" depart="1230.00" from="952945082#0" to="288069930" type="bus_bus"/>
    <trip id="bus42" depart="1260.00" from="-296896088#1" to="-170104259" type="bus_bus"/>
    <trip id="bus43" depart="1290.00" from="-464551516" to="35967847" type="bus_bus"/>
    <trip id="bus44" depart="1320.00" from="59552742" to="235997637" type="bus_bus"/>
    <trip id="bus45" depart="1350.00" from="-27533472" to="170043645" type="bus_bus"/>
    <trip id="bus46" depart="1380.00" from="952945080#1" to="296659363#0" type="bus_bus"/>
    <trip id="bus47" depart="1410.00" from="894039050" to="59556906#2" type="bus_bus"/>
    <trip id="bus48" depart="1440.00" from="-1257170577#1" to="481398535" type="bus_bus"/>
    <trip id="bus49" depart="1470.00" from="485955798" to="296896087#0" type="bus_bus"/>
    <trip id="bus50" depart="1500.00" from="1327330690" to="384916877" type="bus_bus"/>
    <trip id="bus51" depart="1530.00" from="-481230968#1" to="235997648#0" type="bus_bus"/>
    <trip id="bus52" depart="1560.00" from="625093160#0" to="1091525590" type="bus_bus"/>
    <trip id="bus53" depart="1590.00" from="296896088#1" to="-548883610" type="bus_bus"/>
    <trip id="bus54" depart="1620.00" from="725380349#0" to="598944885#3" type="bus_bus"/>
    <trip id="bus55" depart="1650.00" from="1492230041" to="375667879" type="bus_bus"/>
    <trip id="bus56" depart="1680.00" from="385208720" to="-481230968#1" type="bus_bus"/>
    <trip id="bus57" depart="1710.00" from="552840035" to="296896088#2" type="bus_bus"/>
    <trip id="bus58" depart="1740.00" from="587486413" to="296659364" type="bus_bus"/>
    <trip id="bus59" depart="1770.00" from="-1011477960" to="1432084980#0" type="bus_bus"/>
    <trip id="bus60" depart="1800.00" from="-16610261" to="689753983" type="bus_bus"/>
    <trip id="bus61" depart="1830.00" from="625093160#0" to="552840022#0" type="bus_bus"/>
    <trip id="bus62" depart="1860.00" from="16064694#1" to="-24301478" type="bus_bus"/>
    <trip id="bus63" depart="1890.00" from="625093160#0" to="725380349#0" type="bus_bus"/>
    <trip id="bus64" depart="1920.00" from="-296659365" to="277760674" type="bus_bus"/>
    <trip id="bus65" depart="1950.00" from="573201244" to="-35967842" type="bus_bus"/>
    <trip id="bus66" depart="1980.00" from="289800579" to="299376586#0" type="bus_bus"/>
    <trip id="bus67" depart="2010.00" from="1322111544" to="599334734" type="bus_bus"/>
    <trip id="bus68" depart="2040.00" from="24305505" to="-759336243#0" type="bus_bus"/>
    <trip id="bus69" depart="2070.00" from="32266091" to="481398535" type="bus_bus"/>
    <trip id="bus70" depart="2100.00" from="1181724795" to="1306184529" type="bus_bus"/>
    <trip id="bus71" depart="2130.00" from="943536785" to="410658513" type="bus_bus"/>
    <trip id="bus72" depart="2160.00" from="264863287#1" to="292058174" type="bus_bus"/>
    <trip id="bus73" depart="2190.00" from="-548875276#2" to="-759336243#0" type="bus_bus"/>
    <trip id="bus74" depart="2220.00" from="170043664#0" to="324061356#0" type="bus_bus"/>
    <trip id="bus75" depart="2250.00" from="126765650" to="-759336243#0" type="bus_bus"/>
    <trip id="bus76" depart="2280.00" from="-288179988#2" to="360177728" type="bus_bus"/>
    <trip id="bus77" depart="2310.00" from="126765650" to="627027224" type="bus_bus"/>
    <trip id="bus78" depart="2340.00" from="623631173" to="-24741755" type="bus_bus"/>
    <trip id="bus79" depart="2370.00" from="126765650" to="455480607#5" type="bus_bus"/>
    <trip id="bus80" depart="2400.00" from="1233530733" to="-37546390" type="bus_bus"/>
    <trip id="bus81" depart="2430.00" from="772272442" to="31563956" type="bus_bus"/>
    <trip id="bus82" depart="2460.00" from="288179987" to="503811360" type="bus_bus"/>
    <trip id="bus83" depart="2490.00" from="59556907#0" to="-60616242" type="bus_bus"/>
    <trip id="bus84" depart="2520.00" from="-330596253" to="235997648#0" type="bus_bus"/>
    <trip id="bus85" depart="2550.00" from="24305505" to="27056407#0" type="bus_bus"/>
    <trip id="bus86" depart="2580.00" from="50219639#0" to="456678644#1" type="bus_bus"/>
    <trip id="bus87" depart="2610.00" from="894039050" to="-296659370" type="bus_bus"/>
    <trip id="bus88" depart="2640.00" from="207233934#3" to="16064694#1" type="bus_bus"/>
    <trip id="bus89" depart="2670.00" from="625060015" to="1088265904" type="bus_bus"/>
    <trip id="bus90" depart="2700.00" from="1147450680" to="24301663" type="bus_bus"/>
    <trip id="bus91" depart="2730.00" from="24301663" to="115891667#0" type="bus_bus"/>
    <trip id="bus92" depart="2760.00" from="129915065" to="687050509" type="bus_bus"/>
    <trip id="bus93" depart="2790.00" from="27056409" to="59556906#3" type="bus_bus"/>
    <trip id="bus94" depart="2820.00" from="324061352" to="-187285144#1" type="bus_bus"/>
    <trip id="bus95" depart="2850.00" from="95842194#1" to="552840037#0" type="bus_bus"/>
    <trip id="bus96" depart="2880.00" from="84596611" to="687050509" type="bus_bus"/>
    <trip id="bus97" depart="2910.00" from="60616212#2" to="-50219635" type="bus_bus"/>
    <trip id="bus98" depart="2940.00" from="293201850" to="-759336243#0" type="bus_bus"/>
    <trip id="bus99" depart="2970.00" from="20306606" to="-24741755" type="bus_bus"/>
    <trip id="bus100" depart="3000.00" from="183184922" to="835805765" type="bus_bus"/>
    <trip id="bus101" depart="3030.00" from="1322111544" to="503811360" type="bus_bus"/>
    <trip id="bus102" depart="3060.00" from="27056409" to="235997648#0" type="bus_bus"/>
    <trip id="bus103" depart="3090.00" from="7988529" to="951416009" type="bus_bus"/>
    <trip id="bus104" depart="3120.00" from="324061371#0" to="481398535" type="bus_bus"/>
    <trip id="bus105" depart="3150.00" from="1082922727" to="1245089840#0" type="bus_bus"/>
    <trip id="bus106" depart="3180.00" from="835805765" to="322572316#0" type="bus_bus"/>
    <trip id="bus107" depart="3210.00" from="32266091" to="49681044" type="bus_bus"/>
    <trip id="bus108" depart="3240.00" from="-24741556" to="324046001" type="bus_bus"/>
    <trip id="bus109" depart="3270.00" from="301044212" to="58722665" type="bus_bus"/>
    <trip id="bus110" depart="3300.00" from="1084897571#2" to="772272443" type="bus_bus"/>
    <trip id="bus111" depart="3330.00" from="-293201850" to="-600711856" type="bus_bus"/>
    <trip id="bus112" depart="3360.00" from="359888871" to="456678982#0" type="bus_bus"/>
    <trip id="bus113" depart="3390.00" from="126765650" to="-329388956" type="bus_bus"/>
    <trip id="bus114" depart="3420.00" from="660881710#0" to="1085736096" type="bus_bus"/>
    <trip id="bus115" depart="3450.00" from="35967848#0" to="34942579" type="bus_bus"/>
    <trip id="bus116" depart="3480.00" from="24301465#0" to="324045999#0" type="bus_bus"/>
    <trip id="bus117" depart="3510.00" from="319285808#0" to="689753983" type="bus_bus"/>
    <trip id="bus118" depart="3540.00" from="1206485915" to="481230982#0" type="bus_bus"/>
    <trip id="bus119" depart="3570.00" from="126765650" to="171722297" type="bus_bus"/>
    <trip id="bus120" depart="3600.00" from="481398528" to="126612905" type="bus_bus"/>
    <trip id="bus121" depart="3630.00" from="170000687" to="498595603" type="bus_bus"/>
    <trip id="bus122" depart="3660.00" from="-292058174" to="263228457#0" type="bus_bus"/>
    <trip id="bus123" depart="3690.00" from="95842194#0" to="951416009" type="bus_bus"/>
    <trip id="bus124" depart="3720.00" from="-292058175" to="-759336243#0" type="bus_bus"/>
    <trip id="bus125" depart="3750.00" from="1322111544" to="689753983" type="bus_bus"/>
    <trip id="bus126" depart="3780.00" from="625093160#3" to="600711841" type="bus_bus"/>
    <trip id="bus127" depart="3810.00" from="183184922" to="-49681113" type="bus_bus"/>
    <trip id="bus128" depart="3840.00" from="599334729" to="464551510#0" type="bus_bus"/>
    <trip id="bus129" depart="3870.00" from="410658492" to="915062437#0" type="bus_bus"/>
    <trip id="bus130" depart="3900.00" from="463177309" to="-1133370808" type="bus_bus"/>
    <trip id="bus131" depart="3930.00" from="59556908#0" to="1257170577#1" type="bus_bus"/>
    <trip id="bus132" depart="3960.00" from="464556600" to="689753983" type="bus_bus"/>
    <trip id="bus133" depart="3990.00" from="-60616212#3" to="-329388956" type="bus_bus"/>
    <trip id="bus134" depart="4020.00" from="-456678637#2" to="299376586#0" type="bus_bus"/>
    <trip id="bus135" depart="4050.00" from="1365930983" to="33290236" type="bus_bus"/>
    <trip id="bus136" depart="4080.00" from="50219635" to="-660881710#1" type="bus_bus"/>
    <trip id="bus137" depart="4110.00" from="447597734#0" to="1091525591" type="bus_bus"/>
    <trip id="bus138" depart="4140.00" from="296659356" to="627027224" type="bus_bus"/>
    <trip id="bus139" depart="4170.00" from="603634858" to="-294796354" type="bus_bus"/>
    <trip id="bus140" depart="4200.00" from="24305505" to="115868477" type="bus_bus"/>
    <trip id="bus141" depart="4230.00" from="455480607#5" to="1088265904" type="bus_bus"/>
    <trip id="bus142" depart="4260.00" from="54357166" to="299376586#0" type="bus_bus"/>
    <trip id="bus143" depart="4290.00" from="-292058179#1" to="603634858" type="bus_bus"/>
    <trip id="bus144" depart="4320.00" from="660881710#0" to="299376586#0" type="bus_bus"/>
    <trip id="bus145" depart="4350.00" from="599334734" to="324045992#0" type="bus_bus"/>
    <trip id="bus146" depart="4380.00" from="1001157893#1" to="-35967841" type="bus_bus"/>
    <trip id="bus147" depart="4410.00" from="161324505#0" to="625060015" type="bus_bus"/>
    <trip id="bus148" depart="4440.00" from="59552742" to="59556906#2" type="bus_bus"/>
    <trip id="bus149" depart="4470.00" from="660881710#0" to="-759168043" type="bus_bus"/>
    <trip id="bus150" depart="4500.00" from="129915065" to="-296896088#2" type="bus_bus"/>
    <trip id="bus151" depart="4530.00" from="587486413" to="603634859" type="bus_bus"/>
    <trip id="bus152" depart="4560.00" from="220813799#0" to="35049499#0" type="bus_bus"/>
    <trip id="bus153" depart="4590.00" from="1079580311" to="689753983" type="bus_bus"/>
    <trip id="bus154" depart="4620.00" from="625093160#0" to="7988531" type="bus_bus"/>
    <trip id="bus155" depart="4650.00" from="59556908#0" to="600711850" type="bus_bus"/>
    <trip id="bus156" depart="4680.00" from="-170000695#1" to="485955803" type="bus_bus"/>
    <trip id="bus157" depart="4710.00" from="170043625#0" to="689753983" type="bus_bus"/>
    <trip id="bus158" depart="4740.00" from="59552742" to="59716282" type="bus_bus"/>
    <trip id="bus159" depart="4770.00" from="59556908#0" to="1103880810" type="bus_bus"/>
    <trip id="bus160" depart="4800.00" from="59552711" to="-329388956" type="bus_bus"/>
    <trip id="bus161" depart="4830.00" from="625093160#0" to="59556906#0" type="bus_bus"/>
    <trip id="bus162" depart="4860.00" from="126765639#0" to="548862172" type="bus_bus"/>
    <trip id="bus163" depart="4890.00" from="27533472" to="126765651#0" type="bus_bus"/>
    <trip id="bus164" depart="4920.00" from="59552742" to="-7988548" type="bus_bus"/>
    <trip id="bus165" depart="4950.00" from="-170000693" to="-660881710#1" type="bus_bus"/>
    <trip id="bus166" depart="4980.00" from="170019201" to="59716282" type="bus_bus"/>
    <trip id="bus167" depart="5010.00" from="8109759" to="1162775046" type="bus_bus"/>
    <trip id="bus168" depart="5040.00" from="456678644#1" to="187285126" type="bus_bus"/>
    <trip id="bus169" depart="5070.00" from="894039050" to="296896077#1" type="bus_bus"/>
    <trip id="bus170" depart="5100.00" from="796275450" to="-329388956" type="bus_bus"/>
    <trip id="bus171" depart="5130.00" from="894039050" to="-548883610" type="bus_bus"/>
    <trip id="bus172" depart="5160.00" from="7988642#1" to="1103880808#0" type="bus_bus"/>
    <trip id="bus173" depart="5190.00" from="-463074434#1" to="235997648#0" type="bus_bus"/>
    <trip id="bus174" depart="5220.00" from="50219639#0" to="1322111544" type="bus_bus"/>
    <trip id="bus175" depart="5250.00" from="380858686" to="288179985#0" type="bus_bus"/>
    <trip id="bus176" depart="5280.00" from="183192595#0" to="319285808#2" type="bus_bus"/>
    <trip id="bus177" depart="5310.00" from="129915065" to="464556600" type="bus_bus"/>
    <trip id="bus178" depart="5340.00" from="-1015089615" to="687050509" type="bus_bus"/>
    <trip id="bus179" depart="5370.00" from="32266091" to="481398535" type="bus_bus"/>
    <trip id="bus180" depart="5400.00" from="54357166" to="456678634#0" type="bus_bus"/>
    <trip id="bus181" depart="5430.00" from="171202437#0" to="-24741755" type="bus_bus"/>
    <trip id="bus182" depart="5460.00" from="464556601" to="1492229431#0" type="bus_bus"/>
    <trip id="bus183" depart="5490.00" from="170000680" to="58722665" type="bus_bus"/>
    <trip id="bus184" depart="5520.00" from="50219635" to="126612905" type="bus_bus"/>
    <trip id="bus185" depart="5550.00" from="16610261" to="202078190" type="bus_bus"/>
    <trip id="bus186" depart="5580.00" from="207233934#3" to="1233530732" type="bus_bus"/>
    <trip id="bus187" depart="5610.00" from="-557465797" to="222031054#0" type="bus_bus"/>
    <trip id="bus188" depart="5640.00" from="796275450" to="457333537#0" type="bus_bus"/>
    <trip id="bus189" depart="5670.00" from="660881710#0" to="34846200" type="bus_bus"/>
    <trip id="bus190" depart="5700.00" from="-1011477960" to="1206485920" type="bus_bus"/>
    <trip id="bus191" depart="5730.00" from="262231193#0" to="32266118#0" type="bus_bus"/>
    <trip id="bus192" depart="5760.00" from="463177310#0" to="26539742" type="bus_bus"/>
    <trip id="bus193" depart="5790.00" from="27056409" to="-759336243#0" type="bus_bus"/>
    <trip id="bus194" depart="5820.00" from="59552742" to="-50219635" type="bus_bus"/>
    <trip id="bus195" depart="5850.00" from="-296659364" to="291749682" type="bus_bus"/>
    <trip id="bus196" depart="5880.00" from="445757872" to="15238105#0" type="bus_bus"/>
    <trip id="bus197" depart="5910.00" from="59556908#0" to="49681114#0" type="bus_bus"/>
    <trip id="bus198" depart="5940.00" from="482241562" to="-759336243#0" type="bus_bus"/>
    <trip id="bus199" depart="5970.00" from="1168961266" to="-129915065" type="bus_bus"/>
    <trip id="bus200" depart="6000.00" from="129915058#0" to="27056413" type="bus_bus"/>
    <trip id="bus201" depart="6030.00" from="60616212#3" to="-24741755" type="bus_bus"/>
    <trip id="bus202" depart="6060.00" from="240381591#0" to="359888873#0" type="bus_bus"/>
    <trip id="bus203" depart="6090.00" from="115891666#0" to="462184879" type="bus_bus"/>
    <trip id="bus204" depart="6120.00" from="296659367" to="1084897573#1" type="bus_bus"/>
    <trip id="bus205" depart="6150.00" from="464551508#0" to="-1091525591" type="bus_bus"/>
    <trip id="bus206" depart="6180.00" from="-456678637#2" to="235997648#0" type="bus_bus"/>
    <trip id="bus207" depart="6210.00" from="1133911657" to="772272443" type="bus_bus"/>
    <trip id="bus208" depart="6240.00" from="31563956" to="-171721790#1" type="bus_bus"/>
    <trip id="bus209" depart="6270.00" from="129915065" to="58722665" type="bus_bus"/>
    <trip id="bus210" depart="6300.00" from="27056409" to="541347665#0" type="bus_bus"/>
    <trip id="bus211" depart="6330.00" from="481230968#0" to="915062437#1" type="bus_bus"/>
    <trip id="bus212" depart="6360.00" from="359888873#0" to="759336243#1" type="bus_bus"/>
    <trip id="bus213" depart="6390.00" from="660881710#0" to="34800654" type="bus_bus"/>
    <trip id="bus214" depart="6420.00" from="50219635" to="280989225#0" type="bus_bus"/>
    <trip id="bus215" depart="6450.00" from="598944885#0" to="299376586#0" type="bus_bus"/>
    <trip id="bus216" depart="6480.00" from="660881710#0" to="489635623#0" type="bus_bus"/>
    <trip id="bus217" depart="6510.00" from="288231840" to="1088265904" type="bus_bus"/>
    <trip id="bus218" depart="6540.00" from="129915065" to="374287480#0" type="bus_bus"/>
    <trip id="bus219" depart="6570.00" from="573201244" to="292058181" type="bus_bus"/>
    <trip id="bus220" depart="6600.00" from="411047573" to="1156986394" type="bus_bus"/>
    <trip id="bus221" depart="6630.00" from="-292058182" to="1206485900" type="bus_bus"/>
    <trip id="bus222" depart="6660.00" from="1365930983" to="1354366253#1" type="bus_bus"/>
    <trip id="bus223" depart="6690.00" from="32266091" to="-37546390" type="bus_bus"/>
    <trip id="bus224" depart="6720.00" from="126765650" to="462184879" type="bus_bus"/>
    <trip id="bus225" depart="6750.00" from="49681113" to="-24741755" type="bus_bus"/>
    <trip id="bus226" depart="6780.00" from="220813799#1" to="299376586#0" type="bus_bus"/>
    <trip id="bus227" depart="6810.00" from="240381591#1" to="-660881710#1" type="bus_bus"/>
    <trip id="bus228" depart="6840.00" from="24301497#0" to="627027218#1" type="bus_bus"/>
    <trip id="bus229" depart="6870.00" from="34879397" to="462184879" type="bus_bus"/>
    <trip id="bus230" depart="6900.00" from="183184922" to="-1091525591" type="bus_bus"/>
    <trip id="bus231" depart="6930.00" from="170212982" to="50219615" type="bus_bus"/>
    <trip id="bus232" depart="6960.00" from="24301385" to="49681042#0" type="bus_bus"/>
    <trip id="bus233" depart="6990.00" from="324045992#0" to="33183112#0" type="bus_bus"/>
    <trip id="bus234" depart="7020.00" from="126612909" to="-759336243#0" type="bus_bus"/>
    <trip id="bus235" depart="7050.00" from="264534309#0" to="-129915065" type="bus_bus"/>
    <trip id="bus236" depart="7080.00" from="170043645" to="459668281#0" type="bus_bus"/>
    <trip id="bus237" depart="7110.00" from="212796643" to="-50219635" type="bus_bus"/>
    <trip id="bus238" depart="7140.00" from="288069912" to="-35967841" type="bus_bus"/>
    <trip id="bus239" depart="7170.00" from="411029244" to="-129915065" type="bus_bus"/>
    <trip id="bus240" depart="7200.00" from="202076596#0" to="311740485" type="bus_bus"/>
    <trip id="bus241" depart="7230.00" from="-170019196" to="385208728" type="bus_bus"/>
    <trip id="bus242" depart="7260.00" from="-60616242" to="264534309#0" type="bus_bus"/>
    <trip id="bus243" depart="7290.00" from="-24741556" to="170043627" type="bus_bus"/>
    <trip id="bus244" depart="7320.00" from="552840033#0" to="170043627" type="bus_bus"/>
    <trip id="bus245" depart="7350.00" from="548883609" to="552840023#0" type="bus_bus"/>
    <trip id="bus246" depart="7380.00" from="129915065" to="-288179987" type="bus_bus"/>
    <trip id="bus247" depart="7410.00" from="-16610261" to="296896088#2" type="bus_bus"/>
    <trip id="bus248" depart="7440.00" from="95842194#1" to="170000691#0" type="bus_bus"/>
    <trip id="bus249" depart="7470.00" from="460847239#0" to="503811360" type="bus_bus"/>
    <trip id="bus250" depart="7500.00" from="463074433" to="50219616#0" type="bus_bus"/>
    <trip id="bus251" depart="7530.00" from="796275450" to="-660881710#1" type="bus_bus"/>
    <trip id="bus252" depart="7560.00" from="-170000679" to="-481230968#1" type="bus_bus"/>
    <trip id="bus253" depart="7590.00" from="-551455122" to="455480607#5" type="bus_bus"/>
    <trip id="bus254" depart="7620.00" from="328773701#0" to="-759336243#0" type="bus_bus"/>
    <trip id="bus255" depart="7650.00" from="1133257417" to="334864581#0" type="bus_bus"/>
    <trip id="bus256" depart="7680.00" from="548862185" to="-329388956" type="bus_bus"/>
    <trip id="bus257" depart="7710.00" from="59556908#0" to="772272443" type="bus_bus"/>
    <trip id="bus258" depart="7740.00" from="-463074433" to="-129915065" type="bus_bus"/>
    <trip id="bus259" depart="7770.00" from="170000678" to="457333537#0" type="bus_bus"/>
    <trip id="bus260" depart="7800.00" from="7988530" to="183184921" type="bus_bus"/>
    <trip id="bus261" depart="7830.00" from="50219635" to="-27533472" type="bus_bus"/>
    <trip id="bus262" depart="7860.00" from="485955800" to="35967847" type="bus_bus"/>
    <trip id="bus263" depart="7890.00" from="60616213" to="32908559" type="bus_bus"/>
    <trip id="bus264" depart="7920.00" from="-548875276#2" to="8109759" type="bus_bus"/>
    <trip id="bus265" depart="7950.00" from="587486413" to="170000687" type="bus_bus"/>
    <trip id="bus266" depart="7980.00" from="25925545" to="170019204" type="bus_bus"/>
    <trip id="bus267" depart="8010.00" from="307214695#1" to="16923057#0" type="bus_bus"/>
    <trip id="bus268" depart="8040.00" from="60616212#3" to="548875280" type="bus_bus"/>
    <trip id="bus269" depart="8070.00" from="-422097018" to="772272443" type="bus_bus"/>
    <trip id="bus270" depart="8100.00" from="455480606" to="549969116" type="bus_bus"/>
    <trip id="bus271" depart="8130.00" from="49681114#0" to="235997648#0" type="bus_bus"/>
    <trip id="bus272" depart="8160.00" from="51138782#0" to="772272443" type="bus_bus"/>
    <trip id="bus273" depart="8190.00" from="1354366162#1" to="541347665#0" type="bus_bus"/>
    <trip id="bus274" depart="8220.00" from="32266091" to="27533468#0" type="bus_bus"/>
    <trip id="bus275" depart="8250.00" from="264534309#0" to="481398535" type="bus_bus"/>
    <trip id="bus276" depart="8280.00" from="133325791#0" to="58722665" type="bus_bus"/>
    <trip id="bus277" depart="8310.00" from="598944885#0" to="-292058179#1" type="bus_bus"/>
    <trip id="bus278" depart="8340.00" from="625093160#4" to="1084897572#1" type="bus_bus"/>
    <trip id="bus279" depart="8370.00" from="280323996" to="34572676" type="bus_bus"/>
    <trip id="bus280" depart="8400.00" from="183184922" to="-129915065" type="bus_bus"/>
    <trip id="bus281" depart="8430.00" from="60616213" to="-551455122" type="bus_bus"/>
    <trip id="bus282" depart="8460.00" from="122108659" to="538081341#0" type="bus_bus"/>
    <trip id="bus283" depart="8490.00" from="170104260" to="600711846" type="bus_bus"/>
    <trip id="bus284" depart="8520.00" from="489635664" to="115868477" type="bus_bus"/>
    <trip id="bus285" depart="8550.00" from="-1206485921" to="753573639" type="bus_bus"/>
    <trip id="bus286" depart="8580.00" from="-296659365" to="481398535" type="bus_bus"/>
    <trip id="bus287" depart="8610.00" from="296659356" to="50219642#0" type="bus_bus"/>
    <trip id="bus288" depart="8640.00" from="485955800" to="410658493" type="bus_bus"/>
    <trip id="bus289" depart="8670.00" from="296659363#0" to="51138784" type="bus_bus"/>
    <trip id="bus290" depart="8700.00" from="-31563951#0" to="-759336243#0" type="bus_bus"/>
    <trip id="bus291" depart="8730.00" from="485955803" to="126775448#0" type="bus_bus"/>
    <trip id="bus292" depart="8760.00" from="34846200" to="27056413" type="bus_bus"/>
    <trip id="bus293" depart="8790.00" from="32266091" to="235997648#0" type="bus_bus"/>
    <trip id="bus294" depart="8820.00" from="548862182#0" to="1492230041" type="bus_bus"/>
    <trip id="bus295" depart="8850.00" from="49681042#0" to="1144471410" type="bus_bus"/>
    <trip id="bus296" depart="8880.00" from="129915065" to="-329388956" type="bus_bus"/>
    <trip id="bus297" depart="8910.00" from="1156986397" to="-329388956" type="bus_bus"/>
    <trip id="bus298" depart="8940.00" from="1133911657" to="-759336243#0" type="bus_bus"/>
    <trip id="bus299" depart="8970.00" from="292058187#0" to="481398535" type="bus_bus"/>
    <trip id="bus300" depart="9000.00" from="894039050" to="293201850" type="bus_bus"/>
    <trip id="bus301" depart="9030.00" from="143841588" to="-296896087#2" type="bus_bus"/>
    <trip id="bus302" depart="9060.00" from="115891666#0" to="-7988548" type="bus_bus"/>
    <trip id="bus303" depart="9090.00" from="1133911657" to="-129915058#1" type="bus_bus"/>
    <trip id="bus304" depart="9120.00" from="32266091" to="1147450681" type="bus_bus"/>
    <trip id="bus305" depart="9150.00" from="894039050" to="299376586#0" type="bus_bus"/>
    <trip id="bus306" depart="9180.00" from="489635604#0" to="-34942579" type="bus_bus"/>
    <trip id="bus307" depart="9210.00" from="625093160#0" to="27796190" type="bus_bus"/>
    <trip id="bus308" depart="9240.00" from="625093160#0" to="31563961" type="bus_bus"/>
    <trip id="bus309" depart="9270.00" from="288069928" to="240381587#1" type="bus_bus"/>
    <trip id="bus310" depart="9300.00" from="1133911657" to="-191115836" type="bus_bus"/>
    <trip id="bus311" depart="9330.00" from="796275450" to="27056413" type="bus_bus"/>
    <trip id="bus312" depart="9360.00" from="59556908#0" to="187641731" type="bus_bus"/>
    <trip id="bus313" depart="9390.00" from="-292058177" to="359888873#0" type="bus_bus"/>
    <trip id="bus314" depart="9420.00" from="-24741556" to="-463074434#1" type="bus_bus"/>
    <trip id="bus315" depart="9450.00" from="32790772#0" to="126765639#0" type="bus_bus"/>
    <trip id="bus316" depart="9480.00" from="943536782" to="-329388956" type="bus_bus"/>
    <trip id="bus317" depart="9510.00" from="573201242" to="334713314" type="bus_bus"/>
    <trip id="bus318" depart="9540.00" from="59552742" to="-759336243#0" type="bus_bus"/>
    <trip id="bus319" depart="9570.00" from="319285808#0" to="24680099" type="bus_bus"/>
    <trip id="bus320" depart="9600.00" from="27056409" to="59556906#2" type="bus_bus"/>
    <trip id="bus321" depart="9630.00" from="915062449" to="126765651#0" type="bus_bus"/>
    <trip id="bus322" depart="9660.00" from="411029243#0" to="34572675" type="bus_bus"/>
    <trip id="bus323" depart="9690.00" from="538081341#0" to="727250790" type="bus_bus"/>
    <trip id="bus324" depart="9720.00" from="1212627952" to="-759336243#0" type="bus_bus"/>
    <trip id="bus325" depart="9750.00" from="464551518#0" to="-49681042#2" type="bus_bus"/>
    <trip id="bus326" depart="9780.00" from="1133911657" to="-263228460" type="bus_bus"/>
    <trip id="bus327" depart="9810.00" from="-10221485#2" to="24680099" type="bus_bus"/>
    <trip id="bus328" depart="9840.00" from="35967848#0" to="1212627953#0" type="bus_bus"/>